<?xml version="1.0" encoding="UTF-8"?>

<!-- generated on 2026-03-22T23:03:57.134620+05:30 by Eclipse SUMO netedit 1.26.0
-->

<routes xmlns:xsi="http://www.w3.org/2001/XMLSchema-instance" xsi:noNamespaceSchemaLocation="http://sumo.dlr.de/xsd/routes_file.xsd">
    <!-- Vehicles, persons and containers (sorted by depart) -->
    <flow id="f_0" begin="0.00" end="3600.00" perHour="1800.00" from="E16" to="E20" via="E17 E18 E19"/>
    <flow id="f_1" begin="0.00" end="3600.00" perHour="1800.00" from="E16" to="E25" via="E1 E22 E23 E24"/>
    <flow id="f_10" begin="0.00" end="3600.00" perHour="1800.00" from="E26" to="E25" via="-E2 E22 E23 E24"/>
    <flow id="f_11" begin="0.00" end="3600.00" perHour="1800.00" from="E26" to="E20" via="-E2 -E1 E17 E18 E19"/>
    <flow id="f_2" begin="0.00" end="3600.00" perHour="1800.00" from="E16" to="E30" via="E1 E2 E27 E28 E29"/>
    <flow id="f_3" begin="0.00" end="3600.00" perHour="1800.00" from="E16" to="E3" via="E1 E2"/>
    <flow id="f_4" begin="0.00" end="3600.00" perHour="1800.00" from="E21" to="E20" via="-E1 E17 E18 E19"/>
    <flow id="f_5" begin="0.00" end="3600.00" perHour="1800.00" from="E21" to="E25" via="E22 E23 E24"/>
    <flow id="f_6" begin="0.00" end="3600.00" perHour="1800.00" from="E21" to="E30" via="E2 E27 E28 E29"/>
    <flow id="f_7" begin="0.00" end="3600.00" perHour="1800.00" from="E21" to="E3" via="E2"/>
    <flow id="f_8" begin="0.00" end="3600.00" perHour="1800.00" from="E26" to="E30" via="E27 E28 E29"/>
    <flow id="f_9" begin="0.00" end="3600.00" perHour="1800.00" from="E26" to="E3"/>
</routes>
