<?xml version="1.0" encoding="UTF-8"?>

<!-- generated on 2026-03-22T23:04:03.389687+05:30 by Eclipse SUMO sumo 1.26.0
-->

<sumoConfiguration xmlns:xsi="http://www.w3.org/2001/XMLSchema-instance" xsi:noNamespaceSchemaLocation="http://sumo.dlr.de/xsd/sumoConfiguration.xsd">

    <input>
        <net-file value="4x4.net.xml"/>
        <route-files value="4x4.rou.xml"/>
    </input>

</sumoConfiguration>
