<?xml version="1.0" encoding="UTF-8"?>

<!-- generated on 2026-02-09T19:37:21.229764+05:30 by Eclipse SUMO netedit 1.26.0
-->

<routes xmlns:xsi="http://www.w3.org/2001/XMLSchema-instance" xsi:noNamespaceSchemaLocation="http://sumo.dlr.de/xsd/routes_file.xsd">
    <!-- Vehicles, persons and containers (sorted by depart) -->
    <flow id="f_0" begin="0.00" end="3600.00" perHour="1800.00" from="node01-11-SB" to="node33-34-EB" via="node11-21-SB node32-33-EB"/>
    <flow id="f_1" begin="0.00" end="3600.00" perHour="1800.00" from="node02-12-SB" to="node23-24-EB" via="node12-13-EB"/>
    <flow id="f_2" begin="0.00" end="3600.00" perHour="1800.00" from="node03-13-SB" to="node33-43-SB" via="node13-23-SB"/>
    <flow id="f_3" begin="0.00" end="3600.00" perHour="1800.00" from="node10-11-EB" to="node23-24-EB" via="node21-22-EB"/>
    <flow id="f_4" begin="0.00" end="3600.00" perHour="1800.00" from="node20-21-EB" to="node32-42-SB"/>
    <flow id="f_5" begin="0.00" end="3600.00" perHour="1800.00" from="node30-31-EB" to="node31-41-SB" via="node21-22-WB"/>
</routes>
