<?xml version="1.0" encoding="UTF-8"?>

<!-- generated on 2026-02-09T19:08:58.334665+05:30 by Eclipse SUMO netedit 1.26.0
<neteditConfiguration xmlns:xsi="http://www.w3.org/2001/XMLSchema-instance" xsi:noNamespaceSchemaLocation="http://sumo.dlr.de/xsd/neteditConfiguration.xsd">

    <input>
        <sumocfg-file value="C:\Users\harsh\Downloads\New Folder\multiple_intersections.sumocfg"/>
        <additional-files value="C:\Users\harsh\Downloads\New Folder\multiple_intersections.add.xml"/>
        <route-files value="C:\Users\harsh\Downloads\New Folder\multiple_intersections.rou.xml"/>
        <sumo-net-file value="C:\Users\harsh\Downloads\New Folder\multiple_intersections.net.xml"/>
    </input>

    <output>
        <output-file value="C:\Users\harsh\Downloads\New Folder\multiple_intersections.net.xml"/>
    </output>

    <processing>
        <offset.disable-normalization value="true"/>
    </processing>

    <junctions>
        <no-turnarounds value="true"/>
    </junctions>

    <netedit>
        <new-network value="false"/>
    </netedit>

</neteditConfiguration>
-->

<net version="1.20" junctionCornerDetail="5" limitTurnSpeed="5.50" xmlns:xsi="http://www.w3.org/2001/XMLSchema-instance" xsi:noNamespaceSchemaLocation="http://sumo.dlr.de/xsd/net_file.xsd">

    <location netOffset="0.00,0.00" convBoundary="-92.46,-216.23,340.18,65.47" origBoundary="10000000000.00,10000000000.00,-10000000000.00,-10000000000.00" projParameter="!"/>

    <edge id=":node11_0" function="internal">
        <lane id=":node11_0_0" index="0" speed="6.47" length="9.03" shape="16.13,8.59 13.65,8.79 11.85,9.73 10.72,11.42 10.26,13.86"/>
    </edge>
    <edge id=":node11_1" function="internal">
        <lane id=":node11_1_0" index="0" speed="13.89" length="27.58" shape="16.13,8.59 -11.35,7.20"/>
        <lane id=":node11_1_1" index="1" speed="13.89" length="27.58" shape="16.32,5.39 -11.22,4.00"/>
        <lane id=":node11_1_2" index="2" speed="13.89" length="27.58" shape="16.52,2.20 -11.10,0.80"/>
    </edge>
    <edge id=":node11_4" function="internal">
        <lane id=":node11_4_0" index="0" speed="10.71" length="4.65" shape="16.52,2.20 11.97,1.26"/>
    </edge>
    <edge id=":node11_20" function="internal">
        <lane id=":node11_20_0" index="0" speed="10.71" length="20.50" shape="11.97,1.26 9.86,0.82 5.11,-2.37 2.28,-7.37 1.37,-14.18"/>
    </edge>
    <edge id=":node11_5" function="internal">
        <lane id=":node11_5_0" index="0" speed="7.04" length="10.29" shape="10.97,-14.12 11.34,-11.32 12.48,-9.26 14.41,-7.95 17.12,-7.38"/>
    </edge>
    <edge id=":node11_6" function="internal">
        <lane id=":node11_6_0" index="0" speed="13.89" length="27.87" shape="10.97,-14.12 10.26,13.86"/>
        <lane id=":node11_6_1" index="1" speed="13.89" length="27.87" shape="7.77,-14.14 7.06,13.72"/>
        <lane id=":node11_6_2" index="2" speed="13.89" length="27.87" shape="4.57,-14.16 3.86,13.58"/>
    </edge>
    <edge id=":node11_9" function="internal">
        <lane id=":node11_9_0" index="0" speed="10.32" length="5.74" shape="4.57,-14.16 3.72,-8.49"/>
    </edge>
    <edge id=":node11_21" function="internal">
        <lane id=":node11_21_0" index="0" speed="10.32" length="19.15" shape="3.72,-8.49 3.55,-7.39 0.60,-2.63 -4.28,0.09 -11.10,0.80"/>
    </edge>
    <edge id=":node11_10" function="internal">
        <lane id=":node11_10_0" index="0" speed="6.44" length="9.03" shape="-10.72,-8.79 -8.24,-9.05 -6.47,-10.04 -5.40,-11.76 -5.03,-14.22"/>
    </edge>
    <edge id=":node11_11" function="internal">
        <lane id=":node11_11_0" index="0" speed="13.89" length="27.80" shape="-10.72,-8.79 17.12,-7.38"/>
        <lane id=":node11_11_1" index="1" speed="13.89" length="27.80" shape="-10.84,-5.59 16.92,-4.19"/>
        <lane id=":node11_11_2" index="2" speed="13.89" length="27.80" shape="-10.97,-2.40 16.72,-0.99"/>
    </edge>
    <edge id=":node11_14" function="internal">
        <lane id=":node11_14_0" index="0" speed="10.42" length="5.48" shape="-10.97,-2.40 -5.58,-1.42"/>
    </edge>
    <edge id=":node11_22" function="internal">
        <lane id=":node11_22_0" index="0" speed="10.42" length="19.40" shape="-5.58,-1.42 -4.22,-1.17 0.50,1.90 3.19,6.82 3.86,13.58"/>
    </edge>
    <edge id=":node11_15" function="internal">
        <lane id=":node11_15_0" index="0" speed="6.60" length="9.35" shape="-5.73,13.15 -5.98,10.63 -7.00,8.80 -8.79,7.65 -11.35,7.20"/>
    </edge>
    <edge id=":node11_16" function="internal">
        <lane id=":node11_16_0" index="0" speed="13.89" length="27.50" shape="-5.73,13.15 -5.03,-14.22"/>
        <lane id=":node11_16_1" index="1" speed="13.89" length="27.50" shape="-2.53,13.29 -1.83,-14.20"/>
        <lane id=":node11_16_2" index="2" speed="13.89" length="27.50" shape="0.67,13.43 1.37,-14.18"/>
    </edge>
    <edge id=":node11_19" function="internal">
        <lane id=":node11_19_0" index="0" speed="10.34" length="4.42" shape="0.67,13.43 1.49,9.09"/>
    </edge>
    <edge id=":node11_23" function="internal">
        <lane id=":node11_23_0" index="0" speed="10.34" length="20.29" shape="1.49,9.09 1.93,6.76 5.02,2.14 9.95,-0.45 16.72,-0.99"/>
    </edge>
    <edge id=":node12_0" function="internal">
        <lane id=":node12_0_0" index="0" speed="6.70" length="9.50" shape="130.38,15.48 127.77,15.72 125.85,16.72 124.62,18.48 124.08,20.99"/>
    </edge>
    <edge id=":node12_1" function="internal">
        <lane id=":node12_1_0" index="0" speed="13.89" length="27.48" shape="130.38,15.48 102.89,13.98"/>
        <lane id=":node12_1_1" index="1" speed="13.89" length="27.48" shape="130.53,12.29 103.09,10.78"/>
        <lane id=":node12_1_2" index="2" speed="13.89" length="27.48" shape="130.68,9.09 103.29,7.59"/>
    </edge>
    <edge id=":node12_4" function="internal">
        <lane id=":node12_4_0" index="0" speed="10.34" length="5.26" shape="130.68,9.09 125.51,8.10"/>
    </edge>
    <edge id=":node12_20" function="internal">
        <lane id=":node12_20_0" index="0" speed="10.34" length="19.44" shape="125.51,8.10 124.02,7.81 119.40,4.70 116.82,-0.23 116.30,-7.00"/>
    </edge>
    <edge id=":node12_5" function="internal">
        <lane id=":node12_5_0" index="0" speed="6.47" length="9.03" shape="125.88,-6.38 126.07,-3.91 127.01,-2.10 128.70,-0.97 131.14,-0.50"/>
    </edge>
    <edge id=":node12_6" function="internal">
        <lane id=":node12_6_0" index="0" speed="13.89" length="27.42" shape="125.88,-6.38 124.08,20.99"/>
        <lane id=":node12_6_1" index="1" speed="13.89" length="27.42" shape="122.68,-6.59 120.89,20.78"/>
        <lane id=":node12_6_2" index="2" speed="13.89" length="27.42" shape="119.49,-6.79 117.69,20.56"/>
    </edge>
    <edge id=":node12_9" function="internal">
        <lane id=":node12_9_0" index="0" speed="10.41" length="5.10" shape="119.49,-6.79 118.45,-1.80"/>
    </edge>
    <edge id=":node12_21" function="internal">
        <lane id=":node12_21_0" index="0" speed="10.41" length="19.59" shape="118.45,-1.80 118.11,-0.14 114.95,4.47 110.01,7.05 103.29,7.59"/>
    </edge>
    <edge id=":node12_10" function="internal">
        <lane id=":node12_10_0" index="0" speed="6.58" length="9.23" shape="103.89,-1.99 106.38,-2.20 108.22,-3.17 109.39,-4.91 109.91,-7.41"/>
    </edge>
    <edge id=":node12_11" function="internal">
        <lane id=":node12_11_0" index="0" speed="13.89" length="27.34" shape="103.89,-1.99 131.14,-0.50"/>
        <lane id=":node12_11_1" index="1" speed="13.89" length="27.34" shape="103.69,1.20 130.98,2.70"/>
        <lane id=":node12_11_2" index="2" speed="13.89" length="27.34" shape="103.49,4.40 130.83,5.89"/>
    </edge>
    <edge id=":node12_14" function="internal">
        <lane id=":node12_14_0" index="0" speed="10.36" length="4.77" shape="103.49,4.40 108.16,5.36"/>
    </edge>
    <edge id=":node12_22" function="internal">
        <lane id=":node12_22_0" index="0" speed="10.36" length="19.80" shape="108.16,5.36 110.09,5.76 114.65,8.91 117.19,13.85 117.69,20.56"/>
    </edge>
    <edge id=":node12_15" function="internal">
        <lane id=":node12_15_0" index="0" speed="6.50" length="9.03" shape="108.12,19.92 107.93,17.45 107.00,15.64 105.32,14.48 102.89,13.98"/>
    </edge>
    <edge id=":node12_16" function="internal">
        <lane id=":node12_16_0" index="0" speed="13.89" length="27.40" shape="108.12,19.92 109.91,-7.41"/>
        <lane id=":node12_16_1" index="1" speed="13.89" length="27.40" shape="111.31,20.14 113.10,-7.20"/>
        <lane id=":node12_16_2" index="2" speed="13.89" length="27.40" shape="114.50,20.35 116.30,-7.00"/>
    </edge>
    <edge id=":node12_19" function="internal">
        <lane id=":node12_19_0" index="0" speed="10.49" length="4.95" shape="114.50,20.35 115.53,15.51"/>
    </edge>
    <edge id=":node12_23" function="internal">
        <lane id=":node12_23_0" index="0" speed="10.49" length="19.82" shape="115.53,15.51 115.90,13.75 119.09,9.14 124.07,6.52 130.83,5.89"/>
    </edge>
    <edge id=":node13_0" function="internal">
        <lane id=":node13_0_0" index="0" speed="8.07" length="12.76" shape="253.73,21.27 250.61,21.65 248.15,23.08 246.36,25.56 245.22,29.09"/>
    </edge>
    <edge id=":node13_1" function="internal">
        <lane id=":node13_1_0" index="0" speed="13.89" length="28.93" shape="253.73,21.27 224.81,19.96"/>
        <lane id=":node13_1_1" index="1" speed="13.89" length="28.93" shape="253.87,18.07 224.97,16.77"/>
        <lane id=":node13_1_2" index="2" speed="13.89" length="28.93" shape="254.00,14.87 225.12,13.57"/>
    </edge>
    <edge id=":node13_4" function="internal">
        <lane id=":node13_4_0" index="0" speed="10.34" length="5.09" shape="254.00,14.87 249.00,13.94"/>
    </edge>
    <edge id=":node13_20" function="internal">
        <lane id=":node13_20_0" index="0" speed="10.34" length="19.63" shape="249.00,13.94 247.33,13.63 242.69,10.54 240.10,5.61 239.55,-1.16"/>
    </edge>
    <edge id=":node13_5" function="internal">
        <lane id=":node13_5_0" index="0" speed="6.47" length="9.03" shape="249.13,-0.57 249.33,1.90 250.28,3.70 251.97,4.83 254.41,5.28"/>
    </edge>
    <edge id=":node13_6" function="internal">
        <lane id=":node13_6_0" index="0" speed="13.89" length="29.53" shape="249.13,-0.57 248.54,8.30 247.92,14.35 246.93,20.36 245.22,29.09"/>
        <lane id=":node13_6_1" index="1" speed="13.89" length="29.53" shape="245.93,-0.77 245.36,7.97 244.75,13.94 243.77,19.87 242.09,28.47"/>
        <lane id=":node13_6_2" index="2" speed="13.89" length="29.53" shape="242.74,-0.96 242.17,7.65 241.57,13.54 240.60,19.37 238.95,27.85"/>
    </edge>
    <edge id=":node13_9" function="internal">
        <lane id=":node13_9_0" index="0" speed="10.70" length="4.79" shape="242.74,-0.96 241.72,3.72"/>
    </edge>
    <edge id=":node13_21" function="internal">
        <lane id=":node13_21_0" index="0" speed="10.70" length="21.17" shape="241.72,3.72 241.29,5.69 237.87,10.33 232.48,12.96 225.12,13.57"/>
    </edge>
    <edge id=":node13_10" function="internal">
        <lane id=":node13_10_0" index="0" speed="7.04" length="10.64" shape="225.57,3.98 228.76,3.77 231.08,2.77 232.55,1.00 233.16,-1.54"/>
    </edge>
    <edge id=":node13_11" function="internal">
        <lane id=":node13_11_0" index="0" speed="13.89" length="28.88" shape="225.57,3.98 254.41,5.28"/>
        <lane id=":node13_11_1" index="1" speed="13.89" length="28.88" shape="225.42,7.18 254.28,8.48"/>
        <lane id=":node13_11_2" index="2" speed="13.89" length="28.88" shape="225.27,10.37 254.14,11.68"/>
    </edge>
    <edge id=":node13_14" function="internal">
        <lane id=":node13_14_0" index="0" speed="10.18" length="4.89" shape="225.27,10.37 230.07,11.30"/>
    </edge>
    <edge id=":node13_22" function="internal">
        <lane id=":node13_22_0" index="0" speed="10.18" length="21.37" shape="230.07,11.30 232.49,11.77 237.17,15.15 239.33,20.50 238.95,27.85"/>
    </edge>
    <edge id=":node13_15" function="internal">
        <lane id=":node13_15_0" index="0" speed="6.21" length="9.05" shape="229.53,25.99 229.66,23.46 228.92,21.61 227.30,20.44 224.81,19.96"/>
    </edge>
    <edge id=":node13_16" function="internal">
        <lane id=":node13_16_0" index="0" speed="13.89" length="28.24" shape="229.53,25.99 231.11,17.89 232.04,12.31 232.61,6.69 233.16,-1.54"/>
        <lane id=":node13_16_1" index="1" speed="13.89" length="28.24" shape="232.67,26.61 234.28,18.38 235.21,12.72 235.80,7.01 236.35,-1.35"/>
        <lane id=":node13_16_2" index="2" speed="13.89" length="28.24" shape="235.81,27.23 237.44,18.88 238.39,13.13 238.99,7.33 239.55,-1.16"/>
    </edge>
    <edge id=":node13_19" function="internal">
        <lane id=":node13_19_0" index="0" speed="11.44" length="5.53" shape="235.81,27.23 237.55,21.98"/>
    </edge>
    <edge id=":node13_23" function="internal">
        <lane id=":node13_23_0" index="0" speed="11.44" length="21.05" shape="237.55,21.98 238.15,20.18 241.99,15.24 247.32,12.41 254.14,11.68"/>
    </edge>
    <edge id=":node21_0" function="internal">
        <lane id=":node21_0_0" index="0" speed="6.40" length="9.04" shape="16.92,-59.46 14.44,-59.25 12.66,-58.29 11.58,-56.57 11.21,-54.11"/>
    </edge>
    <edge id=":node21_1" function="internal">
        <lane id=":node21_1_0" index="0" speed="13.89" length="27.52" shape="16.92,-59.46 -10.44,-60.48"/>
        <lane id=":node21_1_1" index="1" speed="13.89" length="27.52" shape="17.11,-62.66 -10.39,-63.68"/>
        <lane id=":node21_1_2" index="2" speed="13.89" length="27.52" shape="17.30,-65.85 -10.34,-66.88"/>
    </edge>
    <edge id=":node21_4" function="internal">
        <lane id=":node21_4_0" index="0" speed="10.67" length="4.53" shape="17.30,-65.85 12.86,-66.73"/>
    </edge>
    <edge id=":node21_20" function="internal">
        <lane id=":node21_20_0" index="0" speed="10.67" length="20.61" shape="12.86,-66.73 10.48,-67.20 5.63,-70.32 2.77,-75.23 1.88,-81.91"/>
    </edge>
    <edge id=":node21_5" function="internal">
        <lane id=":node21_5_0" index="0" speed="6.97" length="10.16" shape="11.48,-81.78 11.85,-79.15 13.03,-77.21 15.04,-75.97 17.86,-75.43"/>
    </edge>
    <edge id=":node21_6" function="internal">
        <lane id=":node21_6_0" index="0" speed="13.89" length="27.70" shape="11.48,-81.78 11.21,-54.11"/>
        <lane id=":node21_6_1" index="1" speed="13.89" length="27.70" shape="8.28,-81.83 8.01,-54.13"/>
        <lane id=":node21_6_2" index="2" speed="13.89" length="27.70" shape="5.08,-81.87 4.81,-54.15"/>
    </edge>
    <edge id=":node21_9" function="internal">
        <lane id=":node21_9_0" index="0" speed="10.36" length="4.89" shape="5.08,-81.87 4.32,-77.03"/>
    </edge>
    <edge id=":node21_21" function="internal">
        <lane id=":node21_21_0" index="0" speed="10.36" length="19.65" shape="4.32,-77.03 4.04,-75.22 1.12,-70.51 -3.67,-67.73 -10.34,-66.88"/>
    </edge>
    <edge id=":node21_10" function="internal">
        <lane id=":node21_10_0" index="0" speed="6.50" length="9.03" shape="-10.20,-76.48 -7.74,-76.79 -5.98,-77.81 -4.90,-79.55 -4.52,-82.00"/>
    </edge>
    <edge id=":node21_11" function="internal">
        <lane id=":node21_11_0" index="0" speed="13.89" length="27.93" shape="-10.20,-76.48 17.86,-75.43"/>
        <lane id=":node21_11_1" index="1" speed="13.89" length="27.93" shape="-10.25,-73.28 17.67,-72.24"/>
        <lane id=":node21_11_2" index="2" speed="13.89" length="27.93" shape="-10.29,-70.08 17.48,-69.05"/>
    </edge>
    <edge id=":node21_14" function="internal">
        <lane id=":node21_14_0" index="0" speed="10.49" length="5.69" shape="-10.29,-70.08 -4.68,-69.16"/>
    </edge>
    <edge id=":node21_22" function="internal">
        <lane id=":node21_22_0" index="0" speed="10.49" length="19.29" shape="-4.68,-69.16 -3.65,-69.00 1.08,-65.98 3.90,-61.03 4.81,-54.15"/>
    </edge>
    <edge id=":node21_15" function="internal">
        <lane id=":node21_15_0" index="0" speed="6.71" length="9.61" shape="-4.79,-54.21 -5.13,-56.92 -6.18,-58.87 -7.95,-60.06 -10.44,-60.48"/>
    </edge>
    <edge id=":node21_16" function="internal">
        <lane id=":node21_16_0" index="0" speed="13.89" length="27.77" shape="-4.79,-54.21 -4.52,-82.00"/>
        <lane id=":node21_16_1" index="1" speed="13.89" length="27.77" shape="-1.59,-54.19 -1.32,-81.95"/>
        <lane id=":node21_16_2" index="2" speed="13.89" length="27.77" shape="1.61,-54.17 1.88,-81.91"/>
    </edge>
    <edge id=":node21_19" function="internal">
        <lane id=":node21_19_0" index="0" speed="10.29" length="5.10" shape="1.61,-54.17 2.37,-59.21"/>
    </edge>
    <edge id=":node21_23" function="internal">
        <lane id=":node21_23_0" index="0" speed="10.29" length="20.01" shape="2.37,-59.21 2.64,-61.02 5.63,-65.79 10.58,-68.46 17.48,-69.05"/>
    </edge>
    <edge id=":node22_0" function="internal">
        <lane id=":node22_0_0" index="0" speed="6.50" length="9.04" shape="134.45,-52.45 131.98,-52.27 130.17,-51.34 129.01,-49.67 128.50,-47.24"/>
    </edge>
    <edge id=":node22_1" function="internal">
        <lane id=":node22_1_0" index="0" speed="13.89" length="27.25" shape="134.45,-52.45 107.29,-54.19"/>
        <lane id=":node22_1_1" index="1" speed="13.89" length="27.25" shape="134.68,-55.64 107.48,-57.38"/>
        <lane id=":node22_1_2" index="2" speed="13.89" length="27.25" shape="134.90,-58.84 107.66,-60.58"/>
    </edge>
    <edge id=":node22_4" function="internal">
        <lane id=":node22_4_0" index="0" speed="10.44" length="4.85" shape="134.90,-58.84 130.16,-59.85"/>
    </edge>
    <edge id=":node22_20" function="internal">
        <lane id=":node22_20_0" index="0" speed="10.44" length="19.79" shape="130.16,-59.85 128.30,-60.25 123.71,-63.42 121.13,-68.37 120.55,-75.07"/>
    </edge>
    <edge id=":node22_5" function="internal">
        <lane id=":node22_5_0" index="0" speed="6.63" length="9.31" shape="130.14,-74.54 130.35,-72.01 131.33,-70.14 133.07,-68.95 135.56,-68.41"/>
    </edge>
    <edge id=":node22_6" function="internal">
        <lane id=":node22_6_0" index="0" speed="13.89" length="27.32" shape="130.14,-74.54 128.50,-47.24"/>
        <lane id=":node22_6_1" index="1" speed="13.89" length="27.32" shape="126.94,-74.72 125.31,-47.44"/>
        <lane id=":node22_6_2" index="2" speed="13.89" length="27.32" shape="123.74,-74.90 122.11,-47.65"/>
    </edge>
    <edge id=":node22_9" function="internal">
        <lane id=":node22_9_0" index="0" speed="10.36" length="5.15" shape="123.74,-74.90 122.73,-69.84"/>
    </edge>
    <edge id=":node22_21" function="internal">
        <lane id=":node22_21_0" index="0" speed="10.36" length="19.42" shape="122.73,-69.84 122.42,-68.30 119.30,-63.71 114.38,-61.14 107.66,-60.58"/>
    </edge>
    <edge id=":node22_10" function="internal">
        <lane id=":node22_10_0" index="0" speed="6.51" length="9.06" shape="108.22,-70.16 110.70,-70.37 112.52,-71.31 113.67,-73.00 114.16,-75.43"/>
    </edge>
    <edge id=":node22_11" function="internal">
        <lane id=":node22_11_0" index="0" speed="13.89" length="27.36" shape="108.22,-70.16 135.56,-68.41"/>
        <lane id=":node22_11_1" index="1" speed="13.89" length="27.36" shape="108.04,-66.97 135.34,-65.22"/>
        <lane id=":node22_11_2" index="2" speed="13.89" length="27.36" shape="107.85,-63.77 135.12,-62.03"/>
    </edge>
    <edge id=":node22_14" function="internal">
        <lane id=":node22_14_0" index="0" speed="10.35" length="5.21" shape="107.85,-63.77 112.95,-62.74"/>
    </edge>
    <edge id=":node22_22" function="internal">
        <lane id=":node22_22_0" index="0" speed="10.35" length="19.37" shape="112.95,-62.74 114.46,-62.43 119.04,-59.30 121.59,-54.37 122.11,-47.65"/>
    </edge>
    <edge id=":node22_15" function="internal">
        <lane id=":node22_15_0" index="0" speed="6.49" length="9.03" shape="112.53,-48.26 112.34,-50.73 111.40,-52.54 109.72,-53.70 107.29,-54.19"/>
    </edge>
    <edge id=":node22_16" function="internal">
        <lane id=":node22_16_0" index="0" speed="13.89" length="27.24" shape="112.53,-48.26 114.16,-75.43"/>
        <lane id=":node22_16_1" index="1" speed="13.89" length="27.24" shape="115.72,-48.06 117.35,-75.25"/>
        <lane id=":node22_16_2" index="2" speed="13.89" length="27.24" shape="118.92,-47.85 120.55,-75.07"/>
    </edge>
    <edge id=":node22_19" function="internal">
        <lane id=":node22_19_0" index="0" speed="10.36" length="4.87" shape="118.92,-47.85 119.91,-52.62"/>
    </edge>
    <edge id=":node22_23" function="internal">
        <lane id=":node22_23_0" index="0" speed="10.36" length="19.71" shape="119.91,-52.62 120.30,-54.45 123.46,-59.01 128.40,-61.54 135.12,-62.03"/>
    </edge>
    <edge id=":node23_0" function="internal">
        <lane id=":node23_0_0" index="0" speed="6.51" length="9.03" shape="257.37,-44.05 254.90,-43.84 253.09,-42.90 251.94,-41.21 251.44,-38.79"/>
    </edge>
    <edge id=":node23_1" function="internal">
        <lane id=":node23_1_0" index="0" speed="13.89" length="27.75" shape="257.37,-44.05 229.64,-45.83"/>
        <lane id=":node23_1_1" index="1" speed="13.89" length="27.75" shape="257.56,-47.24 229.86,-49.02"/>
        <lane id=":node23_1_2" index="2" speed="13.89" length="27.75" shape="257.74,-50.44 230.08,-52.21"/>
    </edge>
    <edge id=":node23_4" function="internal">
        <lane id=":node23_4_0" index="0" speed="10.65" length="5.07" shape="257.74,-50.44 252.78,-51.47"/>
    </edge>
    <edge id=":node23_20" function="internal">
        <lane id=":node23_20_0" index="0" speed="10.65" length="20.03" shape="252.78,-51.47 251.16,-51.80 246.49,-55.01 243.75,-60.07 242.92,-66.97"/>
    </edge>
    <edge id=":node23_5" function="internal">
        <lane id=":node23_5_0" index="0" speed="6.94" length="10.08" shape="252.52,-66.81 252.84,-63.97 253.91,-61.89 255.73,-60.58 258.31,-60.02"/>
    </edge>
    <edge id=":node23_6" function="internal">
        <lane id=":node23_6_0" index="0" speed="13.89" length="27.90" shape="252.52,-66.81 251.44,-38.79"/>
        <lane id=":node23_6_1" index="1" speed="13.89" length="27.90" shape="249.32,-66.87 248.25,-38.98"/>
        <lane id=":node23_6_2" index="2" speed="13.89" length="27.90" shape="246.12,-66.92 245.06,-39.18"/>
    </edge>
    <edge id=":node23_9" function="internal">
        <lane id=":node23_9_0" index="0" speed="10.29" length="5.83" shape="246.12,-66.92 245.19,-61.16"/>
    </edge>
    <edge id=":node23_21" function="internal">
        <lane id=":node23_21_0" index="0" speed="10.29" length="19.29" shape="245.19,-61.16 245.02,-60.07 241.98,-55.34 237.00,-52.72 230.08,-52.21"/>
    </edge>
    <edge id=":node23_10" function="internal">
        <lane id=":node23_10_0" index="0" speed="6.40" length="9.04" shape="230.75,-61.79 233.24,-61.97 235.03,-62.92 236.12,-64.62 236.52,-67.08"/>
    </edge>
    <edge id=":node23_11" function="internal">
        <lane id=":node23_11_0" index="0" speed="13.89" length="27.65" shape="230.75,-61.79 258.31,-60.02"/>
        <lane id=":node23_11_1" index="1" speed="13.89" length="27.65" shape="230.53,-58.60 258.12,-56.83"/>
        <lane id=":node23_11_2" index="2" speed="13.89" length="27.65" shape="230.31,-55.41 257.93,-53.63"/>
    </edge>
    <edge id=":node23_14" function="internal">
        <lane id=":node23_14_0" index="0" speed="10.49" length="5.00" shape="230.31,-55.41 235.20,-54.38"/>
    </edge>
    <edge id=":node23_22" function="internal">
        <lane id=":node23_22_0" index="0" speed="10.49" length="19.96" shape="235.20,-54.38 237.10,-53.98 241.83,-50.80 244.48,-45.87 245.06,-39.18"/>
    </edge>
    <edge id=":node23_15" function="internal">
        <lane id=":node23_15_0" index="0" speed="6.70" length="9.58" shape="235.47,-39.76 235.24,-42.25 234.19,-44.10 232.32,-45.29 229.64,-45.83"/>
    </edge>
    <edge id=":node23_16" function="internal">
        <lane id=":node23_16_0" index="0" speed="13.89" length="27.48" shape="235.47,-39.76 236.52,-67.08"/>
        <lane id=":node23_16_1" index="1" speed="13.89" length="27.48" shape="238.67,-39.56 239.72,-67.03"/>
        <lane id=":node23_16_2" index="2" speed="13.89" length="27.48" shape="241.86,-39.37 242.92,-66.97"/>
    </edge>
    <edge id=":node23_19" function="internal">
        <lane id=":node23_19_0" index="0" speed="10.37" length="4.35" shape="241.86,-39.37 242.74,-43.64"/>
    </edge>
    <edge id=":node23_23" function="internal">
        <lane id=":node23_23_0" index="0" speed="10.37" length="20.14" shape="242.74,-43.64 243.21,-45.94 246.34,-50.51 251.25,-53.07 257.93,-53.63"/>
    </edge>
    <edge id=":node31_0" function="internal">
        <lane id=":node31_0_0" index="0" speed="6.35" length="9.04" shape="17.93,-137.88 15.43,-137.75 13.63,-136.83 12.54,-135.14 12.15,-132.67"/>
    </edge>
    <edge id=":node31_1" function="internal">
        <lane id=":node31_1_0" index="0" speed="13.89" length="27.89" shape="17.93,-137.88 -9.74,-139.68"/>
        <lane id=":node31_1_1" index="1" speed="13.89" length="27.89" shape="18.21,-141.07 -9.61,-142.88"/>
        <lane id=":node31_1_2" index="2" speed="13.89" length="27.89" shape="18.50,-144.26 -9.49,-146.08"/>
    </edge>
    <edge id=":node31_4" function="internal">
        <lane id=":node31_4_0" index="0" speed="10.85" length="4.47" shape="18.50,-144.26 14.14,-145.25"/>
    </edge>
    <edge id=":node31_20" function="internal">
        <lane id=":node31_20_0" index="0" speed="10.85" length="21.09" shape="14.14,-145.25 11.61,-145.83 6.74,-149.13 3.88,-154.17 3.04,-160.94"/>
    </edge>
    <edge id=":node31_5" function="internal">
        <lane id=":node31_5_0" index="0" speed="7.24" length="10.83" shape="12.64,-160.73 13.00,-157.94 14.25,-155.85 16.36,-154.48 19.36,-153.82"/>
    </edge>
    <edge id=":node31_6" function="internal">
        <lane id=":node31_6_0" index="0" speed="13.89" length="28.09" shape="12.64,-160.73 12.15,-132.67"/>
        <lane id=":node31_6_1" index="1" speed="13.89" length="28.09" shape="9.44,-160.80 8.95,-132.71"/>
        <lane id=":node31_6_2" index="2" speed="13.89" length="28.09" shape="6.24,-160.87 5.75,-132.75"/>
    </edge>
    <edge id=":node31_9" function="internal">
        <lane id=":node31_9_0" index="0" speed="10.34" length="4.86" shape="6.24,-160.87 5.44,-156.07"/>
    </edge>
    <edge id=":node31_21" function="internal">
        <lane id=":node31_21_0" index="0" speed="10.34" length="19.86" shape="5.44,-156.07 5.13,-154.17 2.14,-149.47 -2.73,-146.77 -9.49,-146.08"/>
    </edge>
    <edge id=":node31_10" function="internal">
        <lane id=":node31_10_0" index="0" speed="6.47" length="9.03" shape="-9.11,-155.67 -6.64,-155.92 -4.86,-156.91 -3.77,-158.63 -3.36,-161.07"/>
    </edge>
    <edge id=":node31_11" function="internal">
        <lane id=":node31_11_0" index="0" speed="13.89" length="28.36" shape="-9.11,-155.67 19.36,-153.82"/>
        <lane id=":node31_11_1" index="1" speed="13.89" length="28.36" shape="-9.23,-152.47 19.07,-150.63"/>
        <lane id=":node31_11_2" index="2" speed="13.89" length="28.36" shape="-9.36,-149.27 18.79,-147.44"/>
    </edge>
    <edge id=":node31_14" function="internal">
        <lane id=":node31_14_0" index="0" speed="10.64" length="5.83" shape="-9.36,-149.27 -3.63,-148.19"/>
    </edge>
    <edge id=":node31_22" function="internal">
        <lane id=":node31_22_0" index="0" speed="10.64" length="19.55" shape="-3.63,-148.19 -2.67,-148.01 2.08,-144.84 4.88,-139.75 5.75,-132.75"/>
    </edge>
    <edge id=":node31_15" function="internal">
        <lane id=":node31_15_0" index="0" speed="6.94" length="10.20" shape="-3.85,-132.88 -4.18,-135.77 -5.28,-137.86 -7.13,-139.17 -9.74,-139.68"/>
    </edge>
    <edge id=":node31_16" function="internal">
        <lane id=":node31_16_0" index="0" speed="13.89" length="28.17" shape="-3.85,-132.88 -3.36,-161.07"/>
        <lane id=":node31_16_1" index="1" speed="13.89" length="28.17" shape="-0.65,-132.83 -0.16,-161.01"/>
        <lane id=":node31_16_2" index="2" speed="13.89" length="28.17" shape="2.55,-132.79 3.04,-160.94"/>
    </edge>
    <edge id=":node31_19" function="internal">
        <lane id=":node31_19_0" index="0" speed="10.26" length="5.12" shape="2.55,-132.79 3.35,-137.85"/>
    </edge>
    <edge id=":node31_23" function="internal">
        <lane id=":node31_23_0" index="0" speed="10.26" length="20.27" shape="3.35,-137.85 3.64,-139.74 6.72,-144.50 11.76,-147.07 18.79,-147.44"/>
    </edge>
    <edge id=":node32_0" function="internal">
        <lane id=":node32_0_0" index="0" speed="6.46" length="9.04" shape="138.72,-127.25 136.24,-127.09 134.42,-126.17 133.27,-124.49 132.78,-122.06"/>
    </edge>
    <edge id=":node32_1" function="internal">
        <lane id=":node32_1_0" index="0" speed="13.89" length="27.39" shape="138.72,-127.25 111.38,-129.52"/>
        <lane id=":node32_1_1" index="1" speed="13.89" length="27.39" shape="138.96,-130.44 111.67,-132.70"/>
        <lane id=":node32_1_2" index="2" speed="13.89" length="27.39" shape="139.21,-133.63 111.95,-135.89"/>
    </edge>
    <edge id=":node32_4" function="internal">
        <lane id=":node32_4_0" index="0" speed="10.33" length="5.23" shape="139.21,-133.63 134.10,-134.77"/>
    </edge>
    <edge id=":node32_20" function="internal">
        <lane id=":node32_20_0" index="0" speed="10.33" length="19.53" shape="134.10,-134.77 132.56,-135.11 128.03,-138.36 125.62,-143.38 125.32,-150.18"/>
    </edge>
    <edge id=":node32_5" function="internal">
        <lane id=":node32_5_0" index="0" speed="6.46" length="9.03" shape="134.87,-149.24 134.98,-146.76 135.86,-144.93 137.51,-143.74 139.94,-143.20"/>
    </edge>
    <edge id=":node32_6" function="internal">
        <lane id=":node32_6_0" index="0" speed="13.89" length="27.40" shape="134.87,-149.24 132.78,-122.06"/>
        <lane id=":node32_6_1" index="1" speed="13.89" length="27.40" shape="131.69,-149.55 129.59,-122.23"/>
        <lane id=":node32_6_2" index="2" speed="13.89" length="27.40" shape="128.50,-149.87 126.39,-122.41"/>
    </edge>
    <edge id=":node32_9" function="internal">