<?xml version="1.0" encoding="UTF-8"?>

<!-- generated on 2026-04-17T11:01:10.723510+05:30 by Eclipse SUMO sumo 1.26.0
-->

<sumoConfiguration xmlns:xsi="http://www.w3.org/2001/XMLSchema-instance" xsi:noNamespaceSchemaLocation="http://sumo.dlr.de/xsd/sumoConfiguration.xsd">

    <input>
        <net-file value="7x28.net.xml"/>
        <route-files value="7x28.rou.xml"/>
    </input>

</sumoConfiguration>
