<?xml version="1.0" encoding="UTF-8"?>

<!-- generated on 2026-04-17T11:01:09.561349+05:30 by Eclipse SUMO netedit 1.26.0
-->

<routes xmlns:xsi="http://www.w3.org/2001/XMLSchema-instance" xsi:noNamespaceSchemaLocation="http://sumo.dlr.de/xsd/routes_file.xsd">
    <!-- Vehicles, persons and containers (sorted by depart) -->
    <flow id="f_0" begin="0.00" end="3600.00" perHour="1800.00" from="E224" to="E252" via="E225 E226 E227 E228"/>
    <flow id="f_1" begin="0.00" end="3600.00" perHour="1800.00" from="E224" to="E281" via="E201 E254"/>
    <flow id="f_10" begin="0.00" end="3600.00" perHour="1800.00" from="E253" to="E310" via="E202 E283"/>
    <flow id="f_11" begin="0.00" end="3600.00" perHour="1800.00" from="E253" to="E339" via="E202 E203 E312"/>
    <flow id="f_12" begin="0.00" end="3600.00" perHour="1800.00" from="E253" to="E368" via="E202 E203 E341"/>
    <flow id="f_13" begin="0.00" end="3600.00" perHour="1800.00" from="E253" to="E397" via="E205 E370"/>
    <flow id="f_14" begin="0.00" end="3600.00" perHour="1800.00" from="E253" to="E426" via="E202 E206 E399"/>
    <flow id="f_15" begin="0.00" end="3600.00" perHour="1800.00" from="E282" to="E252" via="-E202 E225"/>
    <flow id="f_16" begin="0.00" end="3600.00" perHour="1800.00" from="E282" to="E281" via="-E202 E254"/>
    <flow id="f_17" begin="0.00" end="3600.00" perHour="1800.00" from="E282" to="E310"/>
    <flow id="f_18" begin="0.00" end="3600.00" perHour="1800.00" from="E282" to="E368"/>
    <flow id="f_19" begin="0.00" end="3600.00" perHour="1800.00" from="E282" to="E397"/>
    <flow id="f_2" begin="0.00" end="3600.00" perHour="1800.00" from="E224" to="E310" via="E201 E202 E283"/>
    <flow id="f_20" begin="0.00" end="3600.00" perHour="1800.00" from="E282" to="E426"/>
    <flow id="f_21" begin="0.00" end="3600.00" perHour="1800.00" from="E311" to="E252"/>
    <flow id="f_22" begin="0.00" end="3600.00" perHour="1800.00" from="E311" to="E281"/>
    <flow id="f_23" begin="0.00" end="3600.00" perHour="1800.00" from="E311" to="E310"/>
    <flow id="f_24" begin="0.00" end="3600.00" perHour="1800.00" from="E311" to="E339"/>
    <flow id="f_25" begin="0.00" end="3600.00" perHour="1800.00" from="E311" to="E368"/>
    <flow id="f_26" begin="0.00" end="3600.00" perHour="1800.00" from="E311" to="E397"/>
    <flow id="f_27" begin="0.00" end="3600.00" perHour="1800.00" from="E311" to="E426"/>
    <flow id="f_28" begin="0.00" end="3600.00" perHour="1800.00" from="E340" to="E252"/>
    <flow id="f_29" begin="0.00" end="3600.00" perHour="1800.00" from="E340" to="E281"/>
    <flow id="f_3" begin="0.00" end="3600.00" perHour="1800.00" from="E224" to="E310" via="E201 E202 E283"/>
    <flow id="f_30" begin="0.00" end="3600.00" perHour="1800.00" from="E340" to="E310"/>
    <flow id="f_31" begin="0.00" end="3600.00" perHour="1800.00" from="E340" to="E339"/>
    <flow id="f_32" begin="0.00" end="3600.00" perHour="1800.00" from="E340" to="E368"/>
    <flow id="f_33" begin="0.00" end="3600.00" perHour="1800.00" from="E340" to="E397"/>
    <flow id="f_34" begin="0.00" end="3600.00" perHour="1800.00" from="E340" to="E397"/>
    <flow id="f_35" begin="0.00" end="3600.00" perHour="1800.00" from="E340" to="E426"/>
    <flow id="f_36" begin="0.00" end="3600.00" perHour="1800.00" from="E369" to="E252"/>
    <flow id="f_37" begin="0.00" end="3600.00" perHour="1800.00" from="E369" to="E281"/>
    <flow id="f_38" begin="0.00" end="3600.00" perHour="1800.00" from="E369" to="E310"/>
    <flow id="f_39" begin="0.00" end="3600.00" perHour="1800.00" from="E369" to="E339"/>
    <flow id="f_4" begin="0.00" end="3600.00" perHour="1800.00" from="E224" to="E339" via="E201 E202 E203 E312"/>
    <flow id="f_40" begin="0.00" end="3600.00" perHour="1800.00" from="E369" to="E368"/>
    <flow id="f_41" begin="0.00" end="3600.00" perHour="1800.00" from="E369" to="E397"/>
    <flow id="f_42" begin="0.00" end="3600.00" perHour="1800.00" from="E369" to="E426"/>
    <flow id="f_43" begin="0.00" end="3600.00" perHour="1800.00" from="E398" to="E252"/>
    <flow id="f_44" begin="0.00" end="3600.00" perHour="1800.00" from="E398" to="E281"/>
    <flow id="f_45" begin="0.00" end="3600.00" perHour="1800.00" from="E398" to="E310"/>
    <flow id="f_46" begin="0.00" end="3600.00" perHour="1800.00" from="E398" to="E339"/>
    <flow id="f_47" begin="0.00" end="3600.00" perHour="1800.00" from="E398" to="E368"/>
    <flow id="f_48" begin="0.00" end="3600.00" perHour="1800.00" from="E398" to="E397"/>
    <flow id="f_49" begin="0.00" end="3600.00" perHour="1800.00" from="E398" to="E426"/>
    <flow id="f_5" begin="0.00" end="3600.00" perHour="1800.00" from="E224" to="E368" via="E204 E341"/>
    <flow id="f_6" begin="0.00" end="3600.00" perHour="1800.00" from="E224" to="E397" via="E205 E370"/>
    <flow id="f_7" begin="0.00" end="3600.00" perHour="1800.00" from="E224" to="E426" via="E201 E206 E399"/>
    <flow id="f_8" begin="0.00" end="3600.00" perHour="1800.00" from="E253" to="E252" via="-E201 E225"/>
    <flow id="f_9" begin="0.00" end="3600.00" perHour="1800.00" from="E253" to="E281" via="E254"/>
</routes>
