<?xml version="1.0" encoding="UTF-8"?>

<!-- generated on 2026-04-17T10:52:44.776573+05:30 by Eclipse SUMO netedit 1.26.0
<neteditConfiguration xmlns:xsi="http://www.w3.org/2001/XMLSchema-instance" xsi:noNamespaceSchemaLocation="http://sumo.dlr.de/xsd/neteditConfiguration.xsd">

    <input>
        <sumo-net-file value="C:\Users\harsh\Desktop\7x28\7x28.net.xml"/>
    </input>

    <output>
        <output-file value="C:\Users\harsh\Desktop\7x28\7x28.net.xml"/>
    </output>

    <processing>
        <geometry.min-radius.fix.railways value="false"/>
        <geometry.avoid-overlap value="false"/>
        <geometry.max-grade.fix value="false"/>
        <offset.disable-normalization value="true"/>
        <lefthand value="0"/>
    </processing>

    <junctions>
        <no-turnarounds value="true"/>
        <junctions.corner-detail value="5"/>
        <junctions.limit-turn-speed value="5.50"/>
        <rectangular-lane-cut value="0"/>
    </junctions>

    <pedestrian>
        <walkingareas value="0"/>
    </pedestrian>

</neteditConfiguration>
-->

<net version="1.20" junctionCornerDetail="5" limitTurnSpeed="5.50" avoidOverlap="0" xmlns:xsi="http://www.w3.org/2001/XMLSchema-instance" xsi:noNamespaceSchemaLocation="http://sumo.dlr.de/xsd/net_file.xsd">

    <location netOffset="0.00,0.00" convBoundary="-328.99,-232.06,475.92,177.73" origBoundary="-10000000000.00,-10000000000.00,10000000000.00,10000000000.00" projParameter="!"/>

    <edge id=":J1_0" function="internal">
        <lane id=":J1_0_0" index="0" speed="6.61" length="9.14" shape="253.81,124.79 251.31,125.14 249.50,126.18 248.38,127.91 247.95,130.34"/>
    </edge>
    <edge id=":J1_1" function="internal">
        <lane id=":J1_1_0" index="0" speed="13.89" length="14.87" shape="253.81,124.79 250.08,124.74 246.38,124.61 242.68,124.38 238.96,124.06"/>
    </edge>
    <edge id=":J1_2" function="internal">
        <lane id=":J1_2_0" index="0" speed="8.03" length="4.14" shape="253.81,124.79 249.94,124.22 249.75,124.10"/>
    </edge>
    <edge id=":J1_12" function="internal">
        <lane id=":J1_12_0" index="0" speed="8.03" length="10.30" shape="249.75,124.10 247.19,122.51 245.57,119.67 245.06,115.69"/>
    </edge>
    <edge id=":J1_3" function="internal">
        <lane id=":J1_3_0" index="0" speed="6.55" length="9.23" shape="248.26,115.72 248.58,118.29 249.61,120.12 251.35,121.22 253.81,121.59"/>
    </edge>
    <edge id=":J1_4" function="internal">
        <lane id=":J1_4_0" index="0" speed="13.89" length="14.62" shape="248.26,115.72 247.95,130.34"/>
    </edge>
    <edge id=":J1_5" function="internal">
        <lane id=":J1_5_0" index="0" speed="7.86" length="4.21" shape="248.26,115.72 247.64,119.71 247.54,119.86"/>
    </edge>
    <edge id=":J1_13" function="internal">
        <lane id=":J1_13_0" index="0" speed="7.86" length="10.32" shape="247.54,119.86 245.88,122.42 242.99,123.87 238.96,124.06"/>
    </edge>
    <edge id=":J1_6" function="internal">
        <lane id=":J1_6_0" index="0" speed="6.33" length="9.04" shape="239.28,120.87 241.78,120.76 243.58,119.85 244.67,118.16 245.06,115.69"/>
    </edge>
    <edge id=":J1_7" function="internal">
        <lane id=":J1_7_0" index="0" speed="13.89" length="14.56" shape="239.28,120.87 242.94,121.19 246.53,121.41 250.13,121.55 253.81,121.59"/>
    </edge>
    <edge id=":J1_8" function="internal">
        <lane id=":J1_8_0" index="0" speed="8.26" length="4.13" shape="239.28,120.87 243.17,121.79 243.28,121.86"/>
    </edge>
    <edge id=":J1_14" function="internal">
        <lane id=":J1_14_0" index="0" speed="8.26" length="10.31" shape="243.28,121.86 245.91,123.67 247.51,126.52 247.95,130.34"/>
    </edge>
    <edge id=":J1_9" function="internal">
        <lane id=":J1_9_0" index="0" speed="6.82" length="9.52" shape="244.75,130.24 244.45,127.75 243.39,125.89 241.56,124.66 238.96,124.06"/>
    </edge>
    <edge id=":J1_10" function="internal">
        <lane id=":J1_10_0" index="0" speed="13.89" length="14.56" shape="244.75,130.24 245.06,115.69"/>
    </edge>
    <edge id=":J1_11" function="internal">
        <lane id=":J1_11_0" index="0" speed="8.09" length="3.95" shape="244.75,130.24 245.42,126.46 245.48,126.36"/>
    </edge>
    <edge id=":J1_15" function="internal">
        <lane id=":J1_15_0" index="0" speed="8.09" length="10.23" shape="245.48,126.36 247.15,123.75 249.95,122.13 253.81,121.59"/>
    </edge>
    <edge id=":J10_0" function="internal">
        <lane id=":J10_0_0" index="0" speed="6.47" length="9.35" shape="231.20,123.30 228.71,123.44 226.89,124.41 225.76,126.21 225.31,128.83"/>
    </edge>
    <edge id=":J10_1" function="internal">
        <lane id=":J10_1_0" index="0" speed="13.89" length="14.76" shape="231.20,123.30 227.50,123.05 223.83,123.02 220.17,123.21 216.48,123.61"/>
    </edge>
    <edge id=":J10_2" function="internal">
        <lane id=":J10_2_0" index="0" speed="8.13" length="3.97" shape="231.20,123.30 227.34,122.38"/>
    </edge>
    <edge id=":J10_12" function="internal">
        <lane id=":J10_12_0" index="0" speed="8.13" length="10.35" shape="227.34,122.38 224.66,120.49 223.16,117.63 222.85,113.81"/>
    </edge>
    <edge id=":J10_3" function="internal">
        <lane id=":J10_3_0" index="0" speed="6.66" length="9.28" shape="226.04,114.01 226.25,116.47 227.23,118.31 228.99,119.52 231.51,120.12"/>
    </edge>
    <edge id=":J10_4" function="internal">
        <lane id=":J10_4_0" index="0" speed="13.89" length="14.84" shape="226.04,114.01 225.31,128.83"/>
    </edge>
    <edge id=":J10_5" function="internal">
        <lane id=":J10_5_0" index="0" speed="8.83" length="3.83" shape="226.04,114.01 225.24,117.76"/>
    </edge>
    <edge id=":J10_13" function="internal">
        <lane id=":J10_13_0" index="0" speed="8.83" length="11.03" shape="225.24,117.76 223.38,120.61 220.46,122.56 216.48,123.61"/>
    </edge>
    <edge id=":J10_6" function="internal">
        <lane id=":J10_6_0" index="0" speed="7.48" length="10.41" shape="216.05,120.44 218.89,119.70 220.96,118.35 222.28,116.39 222.85,113.81"/>
    </edge>
    <edge id=":J10_7" function="internal">
        <lane id=":J10_7_0" index="0" speed="13.89" length="15.49" shape="216.05,120.44 219.86,120.04 223.78,119.85 227.69,119.87 231.51,120.12"/>
    </edge>
    <edge id=":J10_8" function="internal">
        <lane id=":J10_8_0" index="0" speed="7.73" length="4.48" shape="216.05,120.44 220.23,120.48 220.50,120.61"/>
    </edge>
    <edge id=":J10_14" function="internal">
        <lane id=":J10_14_0" index="0" speed="7.73" length="10.40" shape="220.50,120.61 223.17,121.89 224.86,124.68 225.31,128.83"/>
    </edge>
    <edge id=":J10_9" function="internal">
        <lane id=":J10_9_0" index="0" speed="6.17" length="9.05" shape="222.11,128.72 221.84,126.19 220.81,124.50 219.02,123.64 216.48,123.61"/>
    </edge>
    <edge id=":J10_10" function="internal">
        <lane id=":J10_10_0" index="0" speed="13.89" length="14.93" shape="222.11,128.72 222.85,113.81"/>
    </edge>
    <edge id=":J10_11" function="internal">
        <lane id=":J10_11_0" index="0" speed="7.97" length="4.41" shape="222.11,128.72 222.83,124.62 222.96,124.41"/>
    </edge>
    <edge id=":J10_15" function="internal">
        <lane id=":J10_15_0" index="0" speed="7.97" length="10.33" shape="222.96,124.41 224.63,121.83 227.53,120.32 231.51,120.12"/>
    </edge>
    <edge id=":J101_0" function="internal">
        <lane id=":J101_0_0" index="0" speed="6.93" length="9.72" shape="272.64,79.95 272.23,77.41 271.08,75.54 269.18,74.33 266.54,73.78"/>
    </edge>
    <edge id=":J101_1" function="internal">
        <lane id=":J101_1_0" index="0" speed="13.89" length="14.72" shape="272.64,79.95 272.36,65.23"/>
    </edge>
    <edge id=":J101_2" function="internal">
        <lane id=":J101_2_0" index="0" speed="7.99" length="4.02" shape="272.64,79.95 273.14,76.08 273.21,75.98"/>
    </edge>
    <edge id=":J101_12" function="internal">
        <lane id=":J101_12_0" index="0" speed="7.99" length="10.19" shape="273.21,75.98 274.77,73.31 277.50,71.64 281.36,71.07"/>
    </edge>
    <edge id=":J101_3" function="internal">
        <lane id=":J101_3_0" index="0" speed="6.49" length="9.03" shape="281.38,74.27 278.93,74.63 277.19,75.69 276.16,77.45 275.84,79.91"/>
    </edge>
    <edge id=":J101_4" function="internal">
        <lane id=":J101_4_0" index="0" speed="13.89" length="14.85" shape="281.38,74.27 266.54,73.78"/>
    </edge>
    <edge id=":J101_5" function="internal">
        <lane id=":J101_5_0" index="0" speed="8.14" length="4.34" shape="281.38,74.27 277.52,73.72 277.15,73.50"/>
    </edge>
    <edge id=":J101_13" function="internal">
        <lane id=":J101_13_0" index="0" speed="8.14" length="10.16" shape="277.15,73.50 274.73,72.04 273.01,69.21 272.36,65.23"/>
    </edge>
    <edge id=":J101_6" function="internal">
        <lane id=":J101_6_0" index="0" speed="6.67" length="9.40" shape="275.56,65.15 275.98,67.75 277.09,69.61 278.88,70.71 281.36,71.07"/>
    </edge>
    <edge id=":J101_7" function="internal">
        <lane id=":J101_7_0" index="0" speed="13.89" length="14.76" shape="275.56,65.15 275.84,79.91"/>
    </edge>
    <edge id=":J101_8" function="internal">
        <lane id=":J101_8_0" index="0" speed="7.84" length="4.20" shape="275.56,65.15 275.08,69.17 275.01,69.30"/>
    </edge>
    <edge id=":J101_14" function="internal">
        <lane id=":J101_14_0" index="0" speed="7.84" length="10.37" shape="275.01,69.30 273.42,71.95 270.57,73.49 266.54,73.78"/>
    </edge>
    <edge id=":J101_9" function="internal">
        <lane id=":J101_9_0" index="0" speed="6.31" length="9.04" shape="266.76,70.59 269.27,70.41 271.03,69.45 272.07,67.73 272.36,65.23"/>
    </edge>
    <edge id=":J101_10" function="internal">
        <lane id=":J101_10_0" index="0" speed="13.89" length="14.61" shape="266.76,70.59 281.36,71.07"/>
    </edge>
    <edge id=":J101_11" function="internal">
        <lane id=":J101_11_0" index="0" speed="8.35" length="4.02" shape="266.76,70.59 270.69,71.41"/>
    </edge>
    <edge id=":J101_15" function="internal">
        <lane id=":J101_15_0" index="0" speed="8.35" length="10.57" shape="270.69,71.41 273.52,73.23 275.23,76.07 275.84,79.91"/>
    </edge>
    <edge id=":J102_0" function="internal">
        <lane id=":J102_0_0" index="0" speed="6.79" length="9.38" shape="271.47,29.57 271.04,27.15 269.89,25.39 268.02,24.27 265.42,23.80"/>
    </edge>
    <edge id=":J102_1" function="internal">
        <lane id=":J102_1_0" index="0" speed="13.89" length="14.50" shape="271.47,29.57 271.19,15.08"/>
    </edge>
    <edge id=":J102_2" function="internal">
        <lane id=":J102_2_0" index="0" speed="8.29" length="3.99" shape="271.47,29.57 271.94,25.82 272.04,25.64"/>
    </edge>
    <edge id=":J102_12" function="internal">
        <lane id=":J102_12_0" index="0" speed="8.29" length="10.38" shape="272.04,25.64 273.55,23.00 276.30,21.12 280.20,20.18"/>
    </edge>
    <edge id=":J102_3" function="internal">
        <lane id=":J102_3_0" index="0" speed="6.85" length="9.50" shape="280.53,23.36 277.92,23.98 276.07,25.21 274.99,27.05 274.67,29.49"/>
    </edge>
    <edge id=":J102_4" function="internal">
        <lane id=":J102_4_0" index="0" speed="13.89" length="15.13" shape="280.53,23.36 276.78,23.69 272.99,23.87 269.19,23.91 265.42,23.80"/>
    </edge>
    <edge id=":J102_5" function="internal">
        <lane id=":J102_5_0" index="0" speed="7.85" length="4.31" shape="280.53,23.36 276.50,23.21 276.26,23.09"/>
    </edge>
    <edge id=":J102_13" function="internal">
        <lane id=":J102_13_0" index="0" speed="7.85" length="10.24" shape="276.26,23.09 273.59,21.78 271.83,19.07 271.19,15.08"/>
    </edge>
    <edge id=":J102_6" function="internal">
        <lane id=":J102_6_0" index="0" speed="6.32" length="9.04" shape="274.39,15.03 274.79,17.51 275.88,19.19 277.69,20.08 280.20,20.18"/>
    </edge>
    <edge id=":J102_7" function="internal">
        <lane id=":J102_7_0" index="0" speed="13.89" length="14.46" shape="274.39,15.03 274.67,29.49"/>
    </edge>
    <edge id=":J102_8" function="internal">
        <lane id=":J102_8_0" index="0" speed="7.91" length="4.03" shape="274.39,15.03 273.88,19.03"/>
    </edge>
    <edge id=":J102_14" function="internal">
        <lane id=":J102_14_0" index="0" speed="7.91" length="10.48" shape="273.88,19.03 272.22,21.83 269.40,23.42 265.42,23.80"/>
    </edge>
    <edge id=":J102_9" function="internal">
        <lane id=":J102_9_0" index="0" speed="6.40" length="9.12" shape="265.58,20.60 268.07,20.36 269.83,19.36 270.87,17.60 271.19,15.08"/>
    </edge>
    <edge id=":J102_10" function="internal">
        <lane id=":J102_10_0" index="0" speed="13.89" length="14.64" shape="265.58,20.60 269.27,20.71 272.90,20.68 276.52,20.50 280.20,20.18"/>
    </edge>
    <edge id=":J102_11" function="internal">
        <lane id=":J102_11_0" index="0" speed="8.24" length="3.96" shape="265.58,20.60 269.48,21.32"/>
    </edge>
    <edge id=":J102_15" function="internal">
        <lane id=":J102_15_0" index="0" speed="8.24" length="10.31" shape="269.48,21.32 272.29,23.04 274.03,25.76 274.67,29.49"/>
    </edge>
    <edge id=":J103_0" function="internal">
        <lane id=":J103_0_0" index="0" speed="6.97" length="9.73" shape="270.78,-14.48 270.38,-17.14 269.28,-19.10 267.47,-20.38 264.95,-20.96"/>
    </edge>
    <edge id=":J103_1" function="internal">
        <lane id=":J103_1_0" index="0" speed="13.89" length="14.84" shape="270.78,-14.48 270.76,-18.21 270.84,-21.90 270.99,-25.60 271.24,-29.31"/>
    </edge>
    <edge id=":J103_2" function="internal">
        <lane id=":J103_2_0" index="0" speed="7.87" length="4.22" shape="270.78,-14.48 271.29,-18.46 271.40,-18.64"/>
    </edge>
    <edge id=":J103_12" function="internal">
        <lane id=":J103_12_0" index="0" speed="7.87" length="10.27" shape="271.40,-18.64 272.97,-21.23 275.81,-22.77 279.81,-23.09"/>
    </edge>
    <edge id=":J103_3" function="internal">
        <lane id=":J103_3_0" index="0" speed="6.35" length="9.04" shape="279.61,-19.90 277.11,-19.70 275.34,-18.73 274.30,-17.01 273.98,-14.53"/>
    </edge>
    <edge id=":J103_4" function="internal">
        <lane id=":J103_4_0" index="0" speed="13.89" length="14.70" shape="279.61,-19.90 264.95,-20.96"/>
    </edge>
    <edge id=":J103_5" function="internal">
        <lane id=":J103_5_0" index="0" speed="8.02" length="4.25" shape="279.61,-19.90 275.69,-20.70 275.48,-20.84"/>
    </edge>
    <edge id=":J103_13" function="internal">
        <lane id=":J103_13_0" index="0" speed="8.02" length="10.17" shape="275.48,-20.84 272.99,-22.54 271.50,-25.41 271.24,-29.31"/>
    </edge>
    <edge id=":J103_6" function="internal">
        <lane id=":J103_6_0" index="0" speed="6.53" length="9.20" shape="274.43,-29.06 274.60,-26.59 275.56,-24.77 277.29,-23.60 279.81,-23.09"/>
    </edge>
    <edge id=":J103_7" function="internal">
        <lane id=":J103_7_0" index="0" speed="13.89" length="14.55" shape="274.43,-29.06 274.19,-25.39 274.03,-21.80 273.96,-18.21 273.98,-14.53"/>
    </edge>
    <edge id=":J103_8" function="internal">
        <lane id=":J103_8_0" index="0" speed="8.00" length="3.91" shape="274.43,-29.06 273.58,-25.25"/>
    </edge>
    <edge id=":J103_14" function="internal">
        <lane id=":J103_14_0" index="0" speed="8.00" length="10.33" shape="273.58,-25.25 271.71,-22.62 268.84,-21.19 264.95,-20.96"/>
    </edge>
    <edge id=":J103_9" function="internal">
        <lane id=":J103_9_0" index="0" speed="6.51" length="9.06" shape="265.21,-24.15 267.68,-24.30 269.51,-25.21 270.70,-26.88 271.24,-29.31"/>
    </edge>
    <edge id=":J103_10" function="internal">
        <lane id=":J103_10_0" index="0" speed="13.89" length="14.64" shape="265.21,-24.15 279.81,-23.09"/>
    </edge>
    <edge id=":J103_11" function="internal">
        <lane id=":J103_11_0" index="0" speed="8.39" length="3.99" shape="265.21,-24.15 269.00,-23.28 269.09,-23.22"/>
    </edge>
    <edge id=":J103_15" function="internal">
        <lane id=":J103_15_0" index="0" speed="8.39" length="10.55" shape="269.09,-23.22 271.72,-21.39 273.38,-18.47 273.98,-14.53"/>
    </edge>
    <edge id=":J105_0" function="internal">
        <lane id=":J105_0_0" index="0" speed="6.60" length="9.17" shape="168.78,130.61 168.38,128.10 167.29,126.30 165.53,125.23 163.09,124.87"/>
    </edge>
    <edge id=":J105_1" function="internal">
        <lane id=":J105_1_0" index="0" speed="13.89" length="14.76" shape="168.78,130.61 169.02,115.85"/>
    </edge>
    <edge id=":J105_2" function="internal">
        <lane id=":J105_2_0" index="0" speed="7.95" length="4.38" shape="168.78,130.61 169.26,126.70 169.48,126.31"/>
    </edge>
    <edge id=":J105_12" function="internal">
        <lane id=":J105_12_0" index="0" speed="7.95" length="9.96" shape="169.48,126.31 170.88,123.92 173.66,122.27 177.58,121.75"/>
    </edge>
    <edge id=":J105_3" function="internal">
        <lane id=":J105_3_0" index="0" speed="6.45" length="9.06" shape="177.54,124.95 175.06,125.27 173.31,126.32 172.28,128.07 171.98,130.54"/>
    </edge>
    <edge id=":J105_4" function="internal">
        <lane id=":J105_4_0" index="0" speed="13.89" length="14.46" shape="177.54,124.95 163.09,124.87"/>
    </edge>
    <edge id=":J105_5" function="internal">
        <lane id=":J105_5_0" index="0" speed="7.92" length="4.06" shape="177.54,124.95 173.63,124.34 173.54,124.29"/>
    </edge>
    <edge id=":J105_13" function="internal">
        <lane id=":J105_13_0" index="0" speed="7.92" length="10.30" shape="173.54,124.29 170.91,122.63 169.37,119.80 169.02,115.85"/>
    </edge>
    <edge id=":J105_6" function="internal">
        <lane id=":J105_6_0" index="0" speed="6.41" length="9.04" shape="172.21,116.02 172.43,118.51 173.40,120.29 175.12,121.37 177.58,121.75"/>
    </edge>
    <edge id=":J105_7" function="internal">
        <lane id=":J105_7_0" index="0" speed="13.89" length="14.52" shape="172.21,116.02 171.98,130.54"/>
    </edge>
    <edge id=":J105_8" function="internal">
        <lane id=":J105_8_0" index="0" speed="8.20" length="3.94" shape="172.21,116.02 171.46,119.89"/>
    </edge>
    <edge id=":J105_14" function="internal">
        <lane id=":J105_14_0" index="0" speed="8.20" length="10.38" shape="171.46,119.89 169.69,122.66 166.90,124.32 163.09,124.87"/>
    </edge>
    <edge id=":J105_9" function="internal">
        <lane id=":J105_9_0" index="0" speed="6.74" length="9.36" shape="163.09,121.67 165.57,121.31 167.38,120.22 168.53,118.40 169.02,115.85"/>
    </edge>
    <edge id=":J105_10" function="internal">
        <lane id=":J105_10_0" index="0" speed="13.89" length="14.49" shape="163.09,121.67 177.58,121.75"/>
    </edge>
    <edge id=":J105_11" function="internal">
        <lane id=":J105_11_0" index="0" speed="8.08" length="4.07" shape="163.09,121.67 166.91,122.22 167.08,122.33"/>
    </edge>
    <edge id=":J105_15" function="internal">
        <lane id=":J105_15_0" index="0" speed="8.08" length="10.19" shape="167.08,122.33 169.66,123.89 171.35,126.66 171.98,130.54"/>
    </edge>
    <edge id=":J106_0" function="internal">
        <lane id=":J106_0_0" index="0" speed="6.51" length="9.04" shape="180.23,71.65 177.76,71.86 175.95,72.82 174.81,74.51 174.33,76.94"/>
    </edge>
    <edge id=":J106_1" function="internal">
        <lane id=":J106_1_0" index="0" speed="13.89" length="14.61" shape="180.23,71.65 165.64,70.89"/>
    </edge>
    <edge id=":J106_2" function="internal">
        <lane id=":J106_2_0" index="0" speed="8.29" length="4.03" shape="180.23,71.65 176.42,70.88 176.29,70.80"/>
    </edge>
    <edge id=":J106_12" function="internal">
        <lane id=":J106_12_0" index="0" speed="8.29" length="10.43" shape="176.29,70.80 173.68,69.06 172.01,66.19 171.41,62.26"/>
    </edge>
    <edge id=":J106_3" function="internal">
        <lane id=":J106_3_0" index="0" speed="6.85" length="9.57" shape="174.61,62.21 175.00,64.82 176.10,66.74 177.90,67.95 180.40,68.46"/>
    </edge>
    <edge id=":J106_4" function="internal">
        <lane id=":J106_4_0" index="0" speed="13.89" length="14.73" shape="174.61,62.21 174.33,76.94"/>
    </edge>
    <edge id=":J106_5" function="internal">
        <lane id=":J106_5_0" index="0" speed="7.89" length="4.39" shape="174.61,62.21 174.10,66.17 173.90,66.51"/>
    </edge>
    <edge id=":J106_13" function="internal">
        <lane id=":J106_13_0" index="0" speed="7.89" length="10.06" shape="173.90,66.51 172.43,68.94 169.61,70.51 165.64,70.89"/>
    </edge>
    <edge id=":J106_6" function="internal">
        <lane id=":J106_6_0" index="0" speed="6.37" length="9.04" shape="165.79,67.69 168.28,67.45 170.05,66.47 171.09,64.74 171.41,62.26"/>
    </edge>
    <edge id=":J106_7" function="internal">
        <lane id=":J106_7_0" index="0" speed="13.89" length="14.63" shape="165.79,67.69 180.40,68.46"/>
    </edge>
    <edge id=":J106_8" function="internal">
        <lane id=":J106_8_0" index="0" speed="8.03" length="4.19" shape="165.79,67.69 169.71,68.43 169.88,68.55"/>
    </edge>
    <edge id=":J106_14" function="internal">
        <lane id=":J106_14_0" index="0" speed="8.03" length="10.18" shape="169.88,68.55 172.43,70.22 173.97,73.06 174.33,76.94"/>
    </edge>
    <edge id=":J106_9" function="internal">
        <lane id=":J106_9_0" index="0" speed="6.55" length="9.19" shape="171.13,76.77 170.90,74.30 169.91,72.50 168.16,71.36 165.64,70.89"/>
    </edge>
    <edge id=":J106_10" function="internal">
        <lane id=":J106_10_0" index="0" speed="13.89" length="14.51" shape="171.13,76.77 171.41,62.26"/>
    </edge>
    <edge id=":J106_11" function="internal">
        <lane id=":J106_11_0" index="0" speed="8.00" length="3.90" shape="171.13,76.77 171.89,72.95"/>
    </edge>
    <edge id=":J106_15" function="internal">
        <lane id=":J106_15_0" index="0" speed="8.00" length="10.31" shape="171.89,72.95 173.69,70.29 176.53,68.79 180.40,68.46"/>
    </edge>
    <edge id=":J107_0" function="internal">
        <lane id=":J107_0_0" index="0" speed="6.82" length="9.38" shape="170.90,29.37 170.51,26.86 169.41,25.02 167.62,23.84 165.12,23.31"/>
    </edge>
    <edge id=":J107_1" function="internal">
        <lane id=":J107_1_0" index="0" speed="13.89" length="14.84" shape="170.90,29.37 170.89,25.65 170.96,21.95 171.12,18.26 171.36,14.54"/>
    </edge>
    <edge id=":J107_2" function="internal">
        <lane id=":J107_2_0" index="0" speed="8.12" length="4.09" shape="170.90,29.37 171.41,25.54 171.52,25.35"/>
    </edge>
    <edge id=":J107_12" function="internal">
        <lane id=":J107_12_0" index="0" speed="8.12" length="10.38" shape="171.52,25.35 173.08,22.76 175.91,21.03 179.90,20.36"/>
    </edge>
    <edge id=":J107_3" function="internal">
        <lane id=":J107_3_0" index="0" speed="6.65" length="9.37" shape="180.00,23.56 177.39,23.99 175.53,25.09 174.44,26.87 174.10,29.32"/>
    </edge>
    <edge id=":J107_4" function="internal">
        <lane id=":J107_4_0" index="0" speed="13.89" length="14.88" shape="180.00,23.56 176.27,23.63 172.56,23.62 168.85,23.52 165.12,23.31"/>
    </edge>
    <edge id=":J107_5" function="internal">
        <lane id=":J107_5_0" index="0" speed="7.82" length="4.26" shape="180.00,23.56 175.96,23.11 175.79,23.01"/>
    </edge>
    <edge id=":J107_13" function="internal">
        <lane id=":J107_13_0" index="0" speed="7.82" length="10.35" shape="175.79,23.01 173.17,21.45 171.64,18.60 171.36,14.54"/>
    </edge>
    <edge id=":J107_6" function="internal">
        <lane id=":J107_6_0" index="0" speed="6.29" length="9.04" shape="174.55,14.78 174.72,17.29 175.67,19.06 177.39,20.08 179.90,20.36"/>
    </edge>
    <edge id=":J107_7" function="internal">
        <lane id=":J107_7_0" index="0" speed="13.89" length="14.55" shape="174.55,14.78 174.31,18.45 174.16,22.05 174.09,25.64 174.10,29.32"/>
    </edge>
    <edge id=":J107_8" function="internal">
        <lane id=":J107_8_0" index="0" speed="8.10" length="4.15" shape="174.55,14.78 173.70,18.73 173.65,18.82"/>
    </edge>
    <edge id=":J107_14" function="internal">
        <lane id=":J107_14_0" index="0" speed="8.10" length="10.33" shape="173.65,18.82 171.85,21.47 168.99,23.00 165.12,23.31"/>
    </edge>
    <edge id=":J107_9" function="internal">
        <lane id=":J107_9_0" index="0" speed="6.62" length="9.34" shape="165.34,20.12 167.80,19.91 169.63,18.91 170.81,17.12 171.36,14.54"/>
    </edge>
    <edge id=":J107_10" function="internal">
        <lane id=":J107_10_0" index="0" speed="13.89" length="14.57" shape="165.34,20.12 169.01,20.32 172.61,20.43 176.21,20.44 179.90,20.36"/>
    </edge>
    <edge id=":J107_11" function="internal">
        <lane id=":J107_11_0" index="0" speed="8.26" length="3.99" shape="165.34,20.12 169.12,20.91 169.22,20.98"/>
    </edge>
    <edge id=":J107_15" function="internal">
        <lane id=":J107_15_0" index="0" speed="8.26" length="10.25" shape="169.22,20.98 171.84,22.71 173.50,25.51 174.10,29.32"/>
    </edge>
    <edge id=":J108_0" function="internal">
        <lane id=":J108_0_0" index="0" speed="6.67" length="9.20" shape="183.03,-24.55 180.58,-24.26 178.77,-23.24 177.60,-21.48 177.07,-19.00"/>
    </edge>
    <edge id=":J108_1" function="internal">
        <lane id=":J108_1_0" index="0" speed="13.89" length="14.58" shape="183.03,-24.55 168.47,-25.20"/>
    </edge>
    <edge id=":J108_2" function="internal">
        <lane id=":J108_2_0" index="0" speed="8.17" length="4.11" shape="183.03,-24.55 179.26,-25.21 179.02,-25.37"/>
    </edge>
    <edge id=":J108_12" function="internal">
        <lane id=":J108_12_0" index="0" speed="8.17" length="10.24" shape="179.02,-25.37 176.55,-26.97 174.89,-29.82 174.29,-33.77"/>
    </edge>
    <edge id=":J108_3" function="internal">
        <lane id=":J108_3_0" index="0" speed="6.71" length="9.35" shape="177.49,-33.82 177.87,-31.22 178.94,-29.34 180.69,-28.19 183.11,-27.75"/>
    </edge>
    <edge id=":J108_4" function="internal">
        <lane id=":J108_4_0" index="0" speed="13.89" length="14.84" shape="177.49,-33.82 177.51,-30.10 177.45,-26.41 177.30,-22.71 177.07,-19.00"/>
    </edge>
    <edge id=":J108_5" function="internal">
        <lane id=":J108_5_0" index="0" speed="7.87" length="4.22" shape="177.49,-33.82 176.98,-29.84 176.87,-29.66"/>
    </edge>
    <edge id=":J108_13" function="internal">
        <lane id=":J108_13_0" index="0" speed="7.87" length="10.27" shape="176.87,-29.66 175.31,-27.07 172.47,-25.53 168.47,-25.20"/>
    </edge>
    <edge id=":J108_6" function="internal">
        <lane id=":J108_6_0" index="0" speed="6.35" length="9.04" shape="168.66,-28.39 171.16,-28.60 172.93,-29.56 173.97,-31.29 174.29,-33.77"/>
    </edge>
    <edge id=":J108_7" function="internal">
        <lane id=":J108_7_0" index="0" speed="13.89" length="14.47" shape="168.66,-28.39 183.11,-27.75"/>
    </edge>
    <edge id=":J108_8" function="internal">
        <lane id=":J108_8_0" index="0" speed="8.02" length="4.00" shape="168.66,-28.39 172.59,-27.60"/>
    </edge>
    <edge id=":J108_14" function="internal">
        <lane id=":J108_14_0" index="0" speed="8.02" length="10.41" shape="172.59,-27.60 175.30,-25.77 176.79,-22.90 177.07,-19.00"/>
    </edge>
    <edge id=":J108_9" function="internal">
        <lane id=":J108_9_0" index="0" speed="6.53" length="9.20" shape="173.88,-19.23 173.69,-21.71 172.73,-23.53 170.99,-24.69 168.47,-25.20"/>
    </edge>
    <edge id=":J108_10" function="internal">
        <lane id=":J108_10_0" index="0" speed="13.89" length="14.55" shape="173.88,-19.23 174.11,-22.91 174.25,-26.50 174.31,-30.09 174.29,-33.77"/>
    </edge>
    <edge id=":J108_11" function="internal">
        <lane id=":J108_11_0" index="0" speed="8.14" length="4.03" shape="173.88,-19.23 174.70,-23.05 174.77,-23.15"/>
    </edge>
    <edge id=":J108_15" function="internal">
        <lane id=":J108_15_0" index="0" speed="8.14" length="10.16" shape="174.77,-23.15 176.51,-25.74 179.32,-27.31 183.11,-27.75"/>
    </edge>
    <edge id=":J109_0" function="internal">
        <lane id=":J109_0_0" index="0" speed="6.83" length="9.62" shape="173.81,-61.96 173.41,-64.58 172.29,-66.48 170.47,-67.67 167.93,-68.14"/>
    </edge>
    <edge id=":J109_1" function="internal">
        <lane id=":J109_1_0" index="0" speed="13.89" length="14.81" shape="173.81,-61.96 173.74,-76.77"/>
    </edge>
    <edge id=":J109_2" function="internal">
        <lane id=":J109_2_0" index="0" speed="7.86" length="4.23" shape="173.81,-61.96 174.32,-65.94 174.43,-66.12"/>
    </edge>
    <edge id=":J109_12" function="internal">
        <lane id=":J109_12_0" index="0" speed="7.86" length="10.28" shape="174.43,-66.12 176.00,-68.71 178.84,-70.25 182.85,-70.57"/>
    </edge>
    <edge id=":J109_3" function="internal">
        <lane id=":J109_3_0" index="0" speed="6.34" length="9.04" shape="182.64,-67.38 180.14,-67.18 178.37,-66.22 177.33,-64.49 177.01,-62.01"/>
    </edge>
    <edge id=":J109_4" function="internal">
        <lane id=":J109_4_0" index="0" speed="13.89" length="14.73" shape="182.64,-67.38 167.93,-68.14"/>
    </edge>
    <edge id=":J109_5" function="internal">
        <lane id=":J109_5_0" index="0" speed="8.27" length="4.10" shape="182.64,-67.38 178.72,-68.18 178.64,-68.23"/>
    </edge>
    <edge id=":J109_13" function="internal">
        <lane id=":J109_13_0" index="0" speed="8.27" length="10.48" shape="178.64,-68.23 175.94,-70.01 174.28,-72.87 173.74,-76.77"/>
    </edge>
    <edge id=":J109_6" function="internal">
        <lane id=":J109_6_0" index="0" speed="6.83" length="9.62" shape="176.94,-76.74 177.30,-74.18 178.40,-72.30 180.25,-71.10 182.85,-70.57"/>
    </edge>
    <edge id=":J109_7" function="internal">
        <lane id=":J109_7_0" index="0" speed="13.89" length="14.73" shape="176.94,-76.74 177.01,-62.01"/>
    </edge>
    <edge id=":J109_8" function="internal">
        <lane id=":J109_8_0" index="0" speed="7.94" length="3.94" shape="176.94,-76.74 176.36,-72.85"/>
    </edge>
    <edge id=":J109_14" function="internal">