<?xml version="1.0" encoding="UTF-8"?>

<!-- generated on 2026-02-05T00:54:40.072703+05:30 by Eclipse SUMO netedit 1.26.0
-->

<additional xmlns:xsi="http://www.w3.org/2001/XMLSchema-instance" xsi:noNamespaceSchemaLocation="http://sumo.dlr.de/xsd/additional_file.xsd">
    <!-- Detectors -->
    <laneAreaDetector id="Node1_2_EB_0" lane="Node1-2-EB_0" pos="49.86" length="10.00" period="300.00" file="Node1-2-EB.xml"/>
    <laneAreaDetector id="Node1_2_EB_1" lane="Node1-2-EB_1" pos="52.98" length="10.00" friendlyPos="1" period="300.00" file="e2_0.xml"/>
    <laneAreaDetector id="Node1_2_EB_2" lane="Node1-2-EB_2" pos="48.68" length="10.00" period="300.00" file="e2_1.xml"/>
    <laneAreaDetector id="Node2_7_SB_0" lane="Node2-7-SB_0" pos="41.90" length="10.00" period="300.00" file="e2_2.xml"/>
    <laneAreaDetector id="Node2_7_SB_1" lane="Node2-7-SB_1" pos="42.81" length="10.00" period="300.00" file="e2_3.xml"/>
    <laneAreaDetector id="Node2_7_SB_2" lane="Node2-7-SB_2" pos="40.16" length="10.00" period="300.00" file="e2_4.xml"/>
</additional>
