<?xml version="1.0" encoding="UTF-8"?>

<!-- generated on 2026-02-05T00:56:06.146424+05:30 by Eclipse SUMO netedit 1.26.0
-->

<routes xmlns:xsi="http://www.w3.org/2001/XMLSchema-instance" xsi:noNamespaceSchemaLocation="http://sumo.dlr.de/xsd/routes_file.xsd">
    <!-- Vehicles, persons and containers (sorted by depart) -->
    <flow id="f_0" begin="0.00" end="3600.00" perHour="1800.00" from="Node2-7-SB" to="Node1-2-WB"/>
    <flow id="f_1" begin="0.00" end="3600.00" perHour="1800.00" from="Node1-2-EB" to="Node2-5-SB"/>
    <flow id="f_2" begin="0.00" end="3600.00" perHour="1800.00" from="Node2-3-WB" to="Node1-2-WB"/>
</routes>
