<?xml version="1.0" encoding="UTF-8"?>

<!-- generated on 2026-03-20T16:13:27.383638+05:30 by Eclipse SUMO netedit 1.26.0
<neteditConfiguration xmlns:xsi="http://www.w3.org/2001/XMLSchema-instance" xsi:noNamespaceSchemaLocation="http://sumo.dlr.de/xsd/neteditConfiguration.xsd">

    <input>
        <sumo-net-file value="C:\Users\harsh\Desktop\RL\Co-Light\1x1.net.xml"/>
    </input>

    <output>
        <output-file value="C:\Users\harsh\Desktop\RL\Co-Light\1x1.net.xml"/>
    </output>

    <processing>
        <offset.disable-normalization value="true"/>
    </processing>

    <junctions>
        <no-turnarounds value="true"/>
    </junctions>

    <netedit>
        <new-network value="false"/>
    </netedit>

</neteditConfiguration>
-->

<net version="1.20" junctionCornerDetail="5" limitTurnSpeed="5.50" xmlns:xsi="http://www.w3.org/2001/XMLSchema-instance" xsi:noNamespaceSchemaLocation="http://sumo.dlr.de/xsd/net_file.xsd">

    <location netOffset="0.00,0.00" convBoundary="-66.96,-44.34,48.09,46.21" origBoundary="10000000000.00,10000000000.00,-10000000000.00,-10000000000.00" projParameter="!"/>

    <edge id=":J1_0" function="internal">
        <lane id=":J1_0_0" index="0" speed="6.90" length="9.67" shape="-1.39,7.65 -3.94,8.15 -5.78,9.36 -6.92,11.27 -7.35,13.88"/>
    </edge>
    <edge id=":J1_1" function="internal">
        <lane id=":J1_1_0" index="0" speed="13.89" length="14.72" shape="-1.39,7.65 -16.10,8.31"/>
    </edge>
    <edge id=":J1_2" function="internal">
        <lane id=":J1_2_0" index="0" speed="7.95" length="4.14" shape="-1.39,7.65 -5.31,7.30 -5.49,7.20"/>
    </edge>
    <edge id=":J1_12" function="internal">
        <lane id=":J1_12_0" index="0" speed="7.95" length="10.16" shape="-5.49,7.20 -8.13,5.77 -9.88,3.06 -10.53,-0.81"/>
    </edge>
    <edge id=":J1_3" function="internal">
        <lane id=":J1_3_0" index="0" speed="6.45" length="9.03" shape="-7.33,-0.89 -6.92,1.56 -5.82,3.26 -4.03,4.23 -1.56,4.46"/>
    </edge>
    <edge id=":J1_4" function="internal">
        <lane id=":J1_4_0" index="0" speed="13.89" length="14.78" shape="-7.33,-0.89 -7.35,13.88"/>
    </edge>
    <edge id=":J1_5" function="internal">
        <lane id=":J1_5_0" index="0" speed="8.11" length="4.28" shape="-7.33,-0.89 -7.80,3.00 -7.97,3.31"/>
    </edge>
    <edge id=":J1_13" function="internal">
        <lane id=":J1_13_0" index="0" speed="8.11" length="10.17" shape="-7.97,3.31 -9.41,5.84 -12.18,7.61 -16.10,8.31"/>
    </edge>
    <edge id=":J1_6" function="internal">
        <lane id=":J1_6_0" index="0" speed="6.64" length="9.34" shape="-16.22,5.11 -13.68,4.66 -11.88,3.52 -10.83,1.70 -10.53,-0.81"/>
    </edge>
    <edge id=":J1_7" function="internal">
        <lane id=":J1_7_0" index="0" speed="13.89" length="14.68" shape="-16.22,5.11 -1.56,4.46"/>
    </edge>
    <edge id=":J1_8" function="internal">
        <lane id=":J1_8_0" index="0" speed="7.89" length="3.99" shape="-16.22,5.11 -12.25,5.53"/>
    </edge>
    <edge id=":J1_14" function="internal">
        <lane id=":J1_14_0" index="0" speed="7.89" length="10.45" shape="-12.25,5.53 -9.44,7.13 -7.81,9.92 -7.35,13.88"/>
    </edge>
    <edge id=":J1_9" function="internal">
        <lane id=":J1_9_0" index="0" speed="6.37" length="9.04" shape="-10.55,13.80 -10.84,11.32 -11.86,9.57 -13.61,8.57 -16.10,8.31"/>
    </edge>
    <edge id=":J1_10" function="internal">
        <lane id=":J1_10_0" index="0" speed="13.89" length="14.61" shape="-10.55,13.80 -10.53,-0.81"/>
    </edge>
    <edge id=":J1_11" function="internal">
        <lane id=":J1_11_0" index="0" speed="8.33" length="3.97" shape="-10.55,13.80 -9.90,9.88"/>
    </edge>
    <edge id=":J1_15" function="internal">
        <lane id=":J1_15_0" index="0" speed="8.33" length="10.57" shape="-9.90,9.88 -8.18,7.02 -5.40,5.21 -1.56,4.46"/>
    </edge>

    <edge id="-edge1" from="J1" to="node1" priority="-1">
        <lane id="-edge1_0" index="0" speed="13.89" length="50.84" shape="-16.10,8.31 -66.90,10.23"/>
    </edge>
    <edge id="-edge2" from="J1" to="node2" priority="-1">
        <lane id="-edge2_0" index="0" speed="13.89" length="32.38" shape="-7.35,13.88 -8.20,46.25"/>
    </edge>
    <edge id="-edge3" from="J1" to="node3" priority="-1">
        <lane id="-edge3_0" index="0" speed="13.89" length="49.63" shape="-1.56,4.46 48.01,1.90"/>
    </edge>
    <edge id="E1" from="J1" to="node4" priority="-1">
        <lane id="E1_0" index="0" speed="13.89" length="43.50" shape="-10.53,-0.81 -11.61,-44.30"/>
    </edge>
    <edge id="edge1" from="node1" to="J1" priority="-1">
        <lane id="edge1_0" index="0" speed="13.89" length="50.84" shape="-67.02,7.03 -16.22,5.11"/>
    </edge>
    <edge id="edge2" from="node2" to="J1" priority="-1">
        <lane id="edge2_0" index="0" speed="13.89" length="32.38" shape="-11.40,46.17 -10.55,13.80"/>
    </edge>
    <edge id="edge3" from="node3" to="J1" priority="-1">
        <lane id="edge3_0" index="0" speed="13.89" length="49.63" shape="48.17,5.10 -1.39,7.65"/>
    </edge>
    <edge id="edge4" from="node4" to="J1" priority="-1">
        <lane id="edge4_0" index="0" speed="13.89" length="43.50" shape="-8.41,-44.38 -7.33,-0.89"/>
    </edge>

    <tlLogic id="J1" type="static" programID="0" offset="0">
        <phase duration="42" state="GGgrrrGGgrrr"/>
        <phase duration="3"  state="yyyrrryyyrrr"/>
        <phase duration="42" state="rrrGGgrrrGGg"/>
        <phase duration="3"  state="rrryyyrrryyy"/>
    </tlLogic>

    <junction id="J1" type="traffic_light" x="-8.75" y="6.43" incLanes="edge3_0 edge4_0 edge1_0 edge2_0" intLanes=":J1_0_0 :J1_1_0 :J1_12_0 :J1_3_0 :J1_4_0 :J1_13_0 :J1_6_0 :J1_7_0 :J1_14_0 :J1_9_0 :J1_10_0 :J1_15_0" shape="-1.31,9.25 -1.64,2.86 -3.87,2.53 -4.66,2.01 -5.23,1.26 -5.59,0.28 -5.73,-0.93 -12.13,-0.77 -12.55,1.54 -13.12,2.36 -13.93,2.96 -14.98,3.35 -16.28,3.51 -16.04,9.91 -13.83,10.27 -13.06,10.79 -12.53,11.55 -12.22,12.54 -12.14,13.76 -5.75,13.92 -5.20,11.43 -4.58,10.53 -3.72,9.87 -2.63,9.44">
        <request index="0"  response="000000000000" foes="000100010000" cont="0"/>
        <request index="1"  response="100000100000" foes="111100110000" cont="0"/>
        <request index="2"  response="100011100000" foes="110111110000" cont="1"/>
        <request index="3"  response="000010000000" foes="100010000000" cont="0"/>
        <request index="4"  response="000110000111" foes="100110000111" cont="0"/>
        <request index="5"  response="011110000110" foes="111110000110" cont="1"/>
        <request index="6"  response="000000000000" foes="010000000100" cont="0"/>
        <request index="7"  response="100000100000" foes="110000111100" cont="0"/>
        <request index="8"  response="100000100111" foes="110000110111" cont="1"/>
        <request index="9"  response="000000000010" foes="000000100010" cont="0"/>
        <request index="10" response="000111000110" foes="000111100110" cont="0"/>
        <request index="11" response="000110111110" foes="000110111110" cont="1"/>
    </junction>
    <junction id="node1" type="dead_end" x="-66.96" y="8.63" incLanes="-edge1_0" intLanes="" shape="-66.96,8.63 -66.84,11.83 -66.96,8.63"/>
    <junction id="node2" type="dead_end" x="-9.80" y="46.21" incLanes="-edge2_0" intLanes="" shape="-9.80,46.21 -6.60,46.29 -9.80,46.21"/>
    <junction id="node3" type="dead_end" x="48.09" y="3.50" incLanes="-edge3_0" intLanes="" shape="48.09,3.50 47.93,0.30 48.09,3.50"/>
    <junction id="node4" type="dead_end" x="-10.01" y="-44.34" incLanes="E1_0" intLanes="" shape="-10.01,-44.34 -13.21,-44.26 -10.01,-44.34"/>

    <junction id=":J1_12_0" type="internal" x="-5.49" y="7.20" incLanes=":J1_2_0 edge1_0" intLanes=":J1_4_0 :J1_5_0 :J1_6_0 :J1_7_0 :J1_10_0 :J1_11_0"/>
    <junction id=":J1_13_0" type="internal" x="-7.97" y="3.31" incLanes=":J1_5_0 edge2_0" intLanes=":J1_1_0 :J1_2_0 :J1_7_0 :J1_8_0 :J1_9_0 :J1_10_0"/>
    <junction id=":J1_14_0" type="internal" x="-12.25" y="5.53" incLanes=":J1_8_0 edge3_0" intLanes=":J1_0_0 :J1_1_0 :J1_4_0 :J1_5_0 :J1_10_0 :J1_11_0"/>
    <junction id=":J1_15_0" type="internal" x="-9.90" y="9.88" incLanes=":J1_11_0 edge4_0" intLanes=":J1_1_0 :J1_2_0 :J1_3_0 :J1_4_0 :J1_7_0 :J1_8_0"/>

    <connection from="edge1" to="E1" fromLane="0" toLane="0" via=":J1_6_0" tl="J1" linkIndex="6" dir="r" state="O"/>
    <connection from="edge1" to="-edge3" fromLane="0" toLane="0" via=":J1_7_0" tl="J1" linkIndex="7" dir="s" state="O"/>
    <connection from="edge1" to="-edge2" fromLane="0" toLane="0" via=":J1_8_0" tl="J1" linkIndex="8" dir="l" state="o"/>
    <connection from="edge2" to="-edge1" fromLane="0" toLane="0" via=":J1_9_0" tl="J1" linkIndex="9" dir="r" state="o"/>
    <connection from="edge2" to="E1" fromLane="0" toLane="0" via=":J1_10_0" tl="J1" linkIndex="10" dir="s" state="o"/>
    <connection from="edge2" to="-edge3" fromLane="0" toLane="0" via=":J1_11_0" tl="J1" linkIndex="11" dir="l" state="o"/>
    <connection from="edge3" to="-edge2" fromLane="0" toLane="0" via=":J1_0_0" tl="J1" linkIndex="0" dir="r" state="O"/>
    <connection from="edge3" to="-edge1" fromLane="0" toLane="0" via=":J1_1_0" tl="J1" linkIndex="1" dir="s" state="O"/>
    <connection from="edge3" to="E1" fromLane="0" toLane="0" via=":J1_2_0" tl="J1" linkIndex="2" dir="l" state="o"/>
    <connection from="edge4" to="-edge3" fromLane="0" toLane="0" via=":J1_3_0" tl="J1" linkIndex="3" dir="r" state="o"/>
    <connection from="edge4" to="-edge2" fromLane="0" toLane="0" via=":J1_4_0" tl="J1" linkIndex="4" dir="s" state="o"/>
    <connection from="edge4" to="-edge1" fromLane="0" toLane="0" via=":J1_5_0" tl="J1" linkIndex="5" dir="l" state="o"/>

    <connection from=":J1_0" to="-edge2" fromLane="0" toLane="0" dir="r" state="M"/>
    <connection from=":J1_1" to="-edge1" fromLane="0" toLane="0" dir="s" state="M"/>
    <connection from=":J1_2" to="E1" fromLane="0" toLane="0" via=":J1_12_0" dir="l" state="m"/>
    <connection from=":J1_12" to="E1" fromLane="0" toLane="0" dir="l" state="M"/>
    <connection from=":J1_3" to="-edge3" fromLane="0" toLane="0" dir="r" state="M"/>
    <connection from=":J1_4" to="-edge2" fromLane="0" toLane="0" dir="s" state="M"/>
    <connection from=":J1_5" to="-edge1" fromLane="0" toLane="0" via=":J1_13_0" dir="l" state="m"/>
    <connection from=":J1_13" to="-edge1" fromLane="0" toLane="0" dir="l" state="M"/>
    <connection from=":J1_6" to="E1" fromLane="0" toLane="0" dir="r" state="M"/>
    <connection from=":J1_7" to="-edge3" fromLane="0" toLane="0" dir="s" state="M"/>
    <connection from=":J1_8" to="-edge2" fromLane="0" toLane="0" via=":J1_14_0" dir="l" state="m"/>
    <connection from=":J1_14" to="-edge2" fromLane="0" toLane="0" dir="l" state="M"/>
    <connection from=":J1_9" to="-edge1" fromLane="0" toLane="0" dir="r" state="M"/>
    <connection from=":J1_10" to="E1" fromLane="0" toLane="0" dir="s" state="M"/>
    <connection from=":J1_11" to="-edge3" fromLane="0" toLane="0" via=":J1_15_0" dir="l" state="m"/>
    <connection from=":J1_15" to="-edge3" fromLane="0" toLane="0" dir="l" state="M"/>

</net>
