<?xml version="1.0" encoding="UTF-8"?>

<!-- generated on 2026-03-20T16:13:27.391695+05:30 by Eclipse SUMO netedit 1.26.0
-->

<routes xmlns:xsi="http://www.w3.org/2001/XMLSchema-instance" xsi:noNamespaceSchemaLocation="http://sumo.dlr.de/xsd/routes_file.xsd">
    <!-- Vehicles, persons and containers (sorted by depart) -->
    <flow id="f_0" begin="0.00" end="3600.00" perHour="1800.00" from="edge4" to="-edge1"/>
    <flow id="f_1" begin="0.00" end="3600.00" perHour="1800.00" from="edge4" to="-edge2"/>
    <flow id="f_2" begin="0.00" end="3600.00" perHour="1800.00" from="edge1" to="E1"/>
    <flow id="f_3" begin="0.00" end="3600.00" perHour="1800.00" from="edge1" to="-edge3"/>
    <flow id="f_4" begin="0.00" end="3600.00" perHour="1800.00" from="edge2" to="E1"/>
    <flow id="f_5" begin="0.00" end="3600.00" perHour="1800.00" from="edge2" to="-edge1"/>
    <flow id="f_6" begin="0.00" end="3600.00" perHour="1800.00" from="edge2" to="-edge1"/>
    <flow id="f_7" begin="0.00" end="3600.00" perHour="1800.00" from="edge3" to="E1"/>
    <flow id="f_8" begin="0.00" end="3600.00" perHour="1800.00" from="edge3" to="-edge1"/>
</routes>
