<?xml version="1.0" encoding="UTF-8"?>

<!-- generated on 2026-03-22T23:03:57.120466+05:30 by Eclipse SUMO netedit 1.26.0
<neteditConfiguration xmlns:xsi="http://www.w3.org/2001/XMLSchema-instance" xsi:noNamespaceSchemaLocation="http://sumo.dlr.de/xsd/neteditConfiguration.xsd">

    <input>
        <sumo-net-file value="C:\Users\harsh\Desktop\RL\Co-Light\4x4\4x4.net.xml"/>
    </input>

    <output>
        <output-file value="C:\Users\harsh\Desktop\RL\Co-Light\4x4\4x4.net.xml"/>
    </output>

    <processing>
        <offset.disable-normalization value="true"/>
    </processing>

    <junctions>
        <no-turnarounds value="true"/>
    </junctions>

    <netedit>
        <new-network value="false"/>
    </netedit>

</neteditConfiguration>
-->

<net version="1.20" junctionCornerDetail="5" limitTurnSpeed="5.50" xmlns:xsi="http://www.w3.org/2001/XMLSchema-instance" xsi:noNamespaceSchemaLocation="http://sumo.dlr.de/xsd/net_file.xsd">

    <location netOffset="0.00,0.00" convBoundary="-118.11,-142.36,181.16,49.62" origBoundary="10000000000.00,10000000000.00,-10000000000.00,-10000000000.00" projParameter="!"/>

    <edge id=":J1_0" function="internal">
        <lane id=":J1_0_0" index="0" speed="6.42" length="9.04" shape="-52.30,10.97 -52.67,8.51 -53.75,6.79 -55.53,5.81 -58.01,5.58"/>
    </edge>
    <edge id=":J1_1" function="internal">
        <lane id=":J1_1_0" index="0" speed="13.89" length="14.46" shape="-52.30,10.97 -52.67,-3.48"/>
    </edge>
    <edge id=":J1_2" function="internal">
        <lane id=":J1_2_0" index="0" speed="7.98" length="3.95" shape="-52.30,10.97 -51.78,7.05"/>
    </edge>
    <edge id=":J1_12" function="internal">
        <lane id=":J1_12_0" index="0" speed="7.98" length="10.37" shape="-51.78,7.05 -50.13,4.27 -47.37,2.61 -43.49,2.09"/>
    </edge>
    <edge id=":J1_3" function="internal">
        <lane id=":J1_3_0" index="0" speed="6.49" length="9.09" shape="-43.52,5.29 -45.98,5.62 -47.73,6.68 -48.77,8.45 -49.10,10.94"/>
    </edge>
    <edge id=":J1_4" function="internal">
        <lane id=":J1_4_0" index="0" speed="13.89" length="14.49" shape="-43.52,5.29 -58.01,5.58"/>
    </edge>
    <edge id=":J1_5" function="internal">
        <lane id=":J1_5_0" index="0" speed="8.19" length="3.91" shape="-43.52,5.29 -47.38,4.71"/>
    </edge>
    <edge id=":J1_13" function="internal">
        <lane id=":J1_13_0" index="0" speed="8.19" length="10.39" shape="-47.38,4.71 -50.19,3.05 -51.96,0.32 -52.67,-3.48"/>
    </edge>
    <edge id=":J1_6" function="internal">
        <lane id=":J1_6_0" index="0" speed="6.73" length="9.33" shape="-49.48,-3.62 -49.01,-1.14 -47.85,0.63 -46.01,1.71 -43.49,2.09"/>
    </edge>
    <edge id=":J1_7" function="internal">
        <lane id=":J1_7_0" index="0" speed="13.89" length="14.57" shape="-49.48,-3.62 -49.10,10.94"/>
    </edge>
    <edge id=":J1_8" function="internal">
        <lane id=":J1_8_0" index="0" speed="8.05" length="4.17" shape="-49.48,-3.62 -49.86,0.24 -50.01,0.50"/>
    </edge>
    <edge id=":J1_14" function="internal">
        <lane id=":J1_14_0" index="0" speed="8.05" length="10.12" shape="-50.01,0.50 -51.42,3.06 -54.13,4.84 -58.01,5.58"/>
    </edge>
    <edge id=":J1_9" function="internal">
        <lane id=":J1_9_0" index="0" speed="6.56" length="9.16" shape="-58.17,2.39 -55.67,1.91 -53.92,0.78 -52.92,-1.02 -52.67,-3.48"/>
    </edge>
    <edge id=":J1_10" function="internal">
        <lane id=":J1_10_0" index="0" speed="13.89" length="14.68" shape="-58.17,2.39 -43.49,2.09"/>
    </edge>
    <edge id=":J1_11" function="internal">
        <lane id=":J1_11_0" index="0" speed="7.93" length="4.33" shape="-58.17,2.39 -54.23,2.75 -53.90,2.93"/>
    </edge>
    <edge id=":J1_15" function="internal">
        <lane id=":J1_15_0" index="0" speed="7.93" length="10.02" shape="-53.90,2.93 -51.40,4.30 -49.69,7.03 -49.10,10.94"/>
    </edge>
    <edge id=":J11_0" function="internal">
        <lane id=":J11_0_0" index="0" speed="6.58" length="9.26" shape="62.21,5.19 59.74,5.39 57.92,6.37 56.75,8.13 56.23,10.68"/>
    </edge>
    <edge id=":J11_1" function="internal">
        <lane id=":J11_1_0" index="0" speed="13.89" length="14.54" shape="62.21,5.19 58.54,4.98 54.95,4.85 51.35,4.81 47.68,4.84"/>
    </edge>
    <edge id=":J11_2" function="internal">
        <lane id=":J11_2_0" index="0" speed="8.11" length="4.01" shape="62.21,5.19 58.41,4.39 58.30,4.32"/>
    </edge>
    <edge id=":J11_12" function="internal">
        <lane id=":J11_12_0" index="0" speed="8.11" length="10.14" shape="58.30,4.32 55.73,2.59 54.16,-0.21 53.72,-4.01"/>
    </edge>
    <edge id=":J11_3" function="internal">
        <lane id=":J11_3_0" index="0" speed="6.64" length="9.14" shape="56.91,-3.92 57.20,-1.48 58.22,0.32 59.96,1.48 62.43,2.00"/>
    </edge>
    <edge id=":J11_4" function="internal">
        <lane id=":J11_4_0" index="0" speed="13.89" length="14.62" shape="56.91,-3.92 56.23,10.68"/>
    </edge>
    <edge id=":J11_5" function="internal">
        <lane id=":J11_5_0" index="0" speed="8.18" length="4.13" shape="56.91,-3.92 56.25,-0.15 56.09,0.10"/>
    </edge>
    <edge id=":J11_13" function="internal">
        <lane id=":J11_13_0" index="0" speed="8.18" length="10.25" shape="56.09,0.10 54.49,2.57 51.63,4.23 47.68,4.84"/>
    </edge>
    <edge id=":J11_6" function="internal">
        <lane id=":J11_6_0" index="0" speed="6.73" length="9.39" shape="47.61,1.64 50.23,1.25 52.12,0.17 53.28,-1.58 53.72,-4.01"/>
    </edge>
    <edge id=":J11_7" function="internal">
        <lane id=":J11_7_0" index="0" speed="13.89" length="14.82" shape="47.61,1.64 51.34,1.61 55.03,1.66 58.71,1.78 62.43,2.00"/>
    </edge>
    <edge id=":J11_8" function="internal">
        <lane id=":J11_8_0" index="0" speed="7.85" length="4.23" shape="47.61,1.64 51.61,2.14 51.78,2.24"/>
    </edge>
    <edge id=":J11_14" function="internal">
        <lane id=":J11_14_0" index="0" speed="7.85" length="10.30" shape="51.78,2.24 54.38,3.81 55.92,6.66 56.23,10.68"/>
    </edge>
    <edge id=":J11_9" function="internal">
        <lane id=":J11_9_0" index="0" speed="6.33" length="9.04" shape="53.04,10.46 52.84,7.96 51.89,6.19 50.16,5.15 47.68,4.84"/>
    </edge>
    <edge id=":J11_10" function="internal">
        <lane id=":J11_10_0" index="0" speed="13.89" length="14.49" shape="53.04,10.46 53.72,-4.01"/>
    </edge>
    <edge id=":J11_11" function="internal">
        <lane id=":J11_11_0" index="0" speed="8.06" length="4.01" shape="53.04,10.46 53.85,6.53"/>
    </edge>
    <edge id=":J11_15" function="internal">
        <lane id=":J11_15_0" index="0" speed="8.06" length="10.41" shape="53.85,6.53 55.69,3.81 58.55,2.30 62.43,2.00"/>
    </edge>
    <edge id=":J12_0" function="internal">
        <lane id=":J12_0_0" index="0" speed="6.35" length="9.04" shape="63.60,-41.24 61.10,-41.14 59.29,-40.25 58.18,-38.57 57.75,-36.10"/>
    </edge>
    <edge id=":J12_1" function="internal">
        <lane id=":J12_1_0" index="0" speed="13.89" length="14.53" shape="63.60,-41.24 49.10,-42.15"/>
    </edge>
    <edge id=":J12_2" function="internal">
        <lane id=":J12_2_0" index="0" speed="8.33" length="3.99" shape="63.60,-41.24 59.73,-42.18"/>
    </edge>
    <edge id=":J12_12" function="internal">
        <lane id=":J12_12_0" index="0" speed="8.33" length="10.52" shape="59.73,-42.18 56.99,-44.09 55.38,-46.97 54.90,-50.82"/>
    </edge>
    <edge id=":J12_3" function="internal">
        <lane id=":J12_3_0" index="0" speed="6.90" length="9.65" shape="58.10,-50.76 58.42,-48.21 59.50,-46.31 61.33,-45.05 63.93,-44.42"/>
    </edge>
    <edge id=":J12_4" function="internal">
        <lane id=":J12_4_0" index="0" speed="13.89" length="14.66" shape="58.10,-50.76 57.75,-36.10"/>
    </edge>
    <edge id=":J12_5" function="internal">
        <lane id=":J12_5_0" index="0" speed="8.00" length="4.09" shape="58.10,-50.76 57.47,-46.92 57.36,-46.75"/>
    </edge>
    <edge id=":J12_13" function="internal">
        <lane id=":J12_13_0" index="0" speed="8.00" length="10.12" shape="57.36,-46.75 55.76,-44.20 52.97,-42.61 49.10,-42.15"/>
    </edge>
    <edge id=":J12_6" function="internal">
        <lane id=":J12_6_0" index="0" speed="6.51" length="9.04" shape="49.17,-45.35 51.63,-45.64 53.41,-46.66 54.50,-48.38 54.90,-50.82"/>
    </edge>
    <edge id=":J12_7" function="internal">
        <lane id=":J12_7_0" index="0" speed="13.89" length="14.78" shape="49.17,-45.35 63.93,-44.42"/>
    </edge>
    <edge id=":J12_8" function="internal">
        <lane id=":J12_8_0" index="0" speed="8.04" length="4.35" shape="49.17,-45.35 53.02,-44.70 53.40,-44.45"/>
    </edge>
    <edge id=":J12_14" function="internal">
        <lane id=":J12_14_0" index="0" speed="8.04" length="10.05" shape="53.40,-44.45 55.73,-42.94 57.31,-40.07 57.75,-36.10"/>
    </edge>
    <edge id=":J12_9" function="internal">
        <lane id=":J12_9_0" index="0" speed="6.56" length="9.22" shape="54.56,-36.18 54.27,-38.75 53.27,-40.60 51.55,-41.73 49.10,-42.15"/>
    </edge>
    <edge id=":J12_10" function="internal">
        <lane id=":J12_10_0" index="0" speed="13.89" length="14.65" shape="54.56,-36.18 54.90,-50.82"/>
    </edge>
    <edge id=":J12_11" function="internal">
        <lane id=":J12_11_0" index="0" speed="7.87" length="4.11" shape="54.56,-36.18 55.23,-40.14 55.29,-40.22"/>
    </edge>
    <edge id=":J12_15" function="internal">
        <lane id=":J12_15_0" index="0" speed="7.87" length="10.38" shape="55.29,-40.22 57.02,-42.83 59.92,-44.26 63.93,-44.42"/>
    </edge>
    <edge id=":J13_0" function="internal">
        <lane id=":J13_0_0" index="0" speed="6.36" length="9.04" shape="64.65,-91.14 62.15,-91.01 60.35,-90.10 59.24,-88.41 58.83,-85.94"/>
    </edge>
    <edge id=":J13_1" function="internal">
        <lane id=":J13_1_0" index="0" speed="13.89" length="14.51" shape="64.65,-91.14 50.16,-92.01"/>
    </edge>
    <edge id=":J13_2" function="internal">
        <lane id=":J13_2_0" index="0" speed="8.25" length="3.98" shape="64.65,-91.14 60.77,-92.04"/>
    </edge>
    <edge id=":J13_12" function="internal">
        <lane id=":J13_12_0" index="0" speed="8.25" length="10.47" shape="60.77,-92.04 58.04,-93.92 56.45,-96.79 56.01,-100.64"/>
    </edge>
    <edge id=":J13_3" function="internal">
        <lane id=":J13_3_0" index="0" speed="6.81" length="9.52" shape="59.21,-100.55 59.50,-98.03 60.56,-96.15 62.37,-94.92 64.94,-94.32"/>
    </edge>
    <edge id=":J13_4" function="internal">
        <lane id=":J13_4_0" index="0" speed="13.89" length="14.61" shape="59.21,-100.55 58.83,-85.94"/>
    </edge>
    <edge id=":J13_5" function="internal">
        <lane id=":J13_5_0" index="0" speed="8.01" length="4.03" shape="59.21,-100.55 58.54,-96.72 58.47,-96.60"/>
    </edge>
    <edge id=":J13_13" function="internal">
        <lane id=":J13_13_0" index="0" speed="8.01" length="10.15" shape="58.47,-96.60 56.81,-94.02 54.02,-92.45 50.16,-92.01"/>
    </edge>
    <edge id=":J13_6" function="internal">
        <lane id=":J13_6_0" index="0" speed="6.52" length="9.03" shape="50.25,-95.21 52.71,-95.49 54.49,-96.49 55.59,-98.21 56.01,-100.64"/>
    </edge>
    <edge id=":J13_7" function="internal">
        <lane id=":J13_7_0" index="0" speed="13.89" length="14.72" shape="50.25,-95.21 64.94,-94.32"/>
    </edge>
    <edge id=":J13_8" function="internal">
        <lane id=":J13_8_0" index="0" speed="8.07" length="4.28" shape="50.25,-95.21 54.08,-94.54 54.40,-94.32"/>
    </edge>
    <edge id=":J13_14" function="internal">
        <lane id=":J13_14_0" index="0" speed="8.07" length="10.10" shape="54.40,-94.32 56.78,-92.77 58.37,-89.91 58.83,-85.94"/>
    </edge>
    <edge id=":J13_9" function="internal">
        <lane id=":J13_9_0" index="0" speed="6.59" length="9.25" shape="55.64,-86.01 55.34,-88.58 54.33,-90.43 52.60,-91.58 50.16,-92.01"/>
    </edge>
    <edge id=":J13_10" function="internal">
        <lane id=":J13_10_0" index="0" speed="13.89" length="14.64" shape="55.64,-86.01 56.01,-100.64"/>
    </edge>
    <edge id=":J13_11" function="internal">
        <lane id=":J13_11_0" index="0" speed="7.88" length="4.16" shape="55.64,-86.01 56.29,-89.96 56.38,-90.10"/>
    </edge>
    <edge id=":J13_15" function="internal">
        <lane id=":J13_15_0" index="0" speed="7.88" length="10.30" shape="56.38,-90.10 58.06,-92.66 60.94,-94.12 64.94,-94.32"/>
    </edge>
    <edge id=":J16_0" function="internal">
        <lane id=":J16_0_0" index="0" speed="6.28" length="9.04" shape="123.15,9.96 120.63,9.95 118.80,10.77 117.66,12.42 117.21,14.89"/>
    </edge>
    <edge id=":J16_1" function="internal">
        <lane id=":J16_1_0" index="0" speed="13.89" length="14.74" shape="123.15,9.96 108.49,8.37"/>
    </edge>
    <edge id=":J16_2" function="internal">
        <lane id=":J16_2_0" index="0" speed="8.49" length="4.04" shape="123.15,9.96 119.27,8.84"/>
    </edge>
    <edge id=":J16_12" function="internal">
        <lane id=":J16_12_0" index="0" speed="8.49" length="10.70" shape="119.27,8.84 116.54,6.79 114.97,3.81 114.55,-0.09"/>
    </edge>
    <edge id=":J16_3" function="internal">
        <lane id=":J16_3_0" index="0" speed="7.09" length="9.98" shape="117.74,0.02 118.03,2.65 119.11,4.65 120.97,6.03 123.61,6.79"/>
    </edge>
    <edge id=":J16_4" function="internal">
        <lane id=":J16_4_0" index="0" speed="13.89" length="14.88" shape="117.74,0.02 117.21,14.89"/>
    </edge>
    <edge id=":J16_5" function="internal">
        <lane id=":J16_5_0" index="0" speed="7.94" length="4.10" shape="117.74,0.02 117.05,3.90 116.96,4.03"/>
    </edge>
    <edge id=":J16_13" function="internal">
        <lane id=":J16_13_0" index="0" speed="7.94" length="10.22" shape="116.96,4.03 115.27,6.59 112.42,8.07 108.49,8.37"/>
    </edge>
    <edge id=":J16_6" function="internal">
        <lane id=":J16_6_0" index="0" speed="6.44" length="9.03" shape="108.71,5.17 111.19,4.99 112.99,4.05 114.11,2.36 114.55,-0.09"/>
    </edge>
    <edge id=":J16_7" function="internal">
        <lane id=":J16_7_0" index="0" speed="13.89" length="14.99" shape="108.71,5.17 123.61,6.79"/>
    </edge>
    <edge id=":J16_8" function="internal">
        <lane id=":J16_8_0" index="0" speed="8.21" length="4.39" shape="108.71,5.17 112.55,6.01 112.92,6.27"/>
    </edge>
    <edge id=":J16_14" function="internal">
        <lane id=":J16_14_0" index="0" speed="8.21" length="10.24" shape="112.92,6.27 115.25,7.91 116.80,10.87 117.21,14.89"/>
    </edge>
    <edge id=":J16_9" function="internal">
        <lane id=":J16_9_0" index="0" speed="6.76" length="9.58" shape="114.01,14.78 113.75,12.12 112.74,10.17 110.99,8.91 108.49,8.37"/>
    </edge>
    <edge id=":J16_10" function="internal">
        <lane id=":J16_10_0" index="0" speed="13.89" length="14.88" shape="114.01,14.78 114.55,-0.09"/>
    </edge>
    <edge id=":J16_11" function="internal">
        <lane id=":J16_11_0" index="0" speed="7.82" length="4.07" shape="114.01,14.78 114.74,10.77"/>
    </edge>
    <edge id=":J16_15" function="internal">
        <lane id=":J16_15_0" index="0" speed="7.82" length="10.55" shape="114.74,10.77 116.58,8.11 119.54,6.78 123.61,6.79"/>
    </edge>
    <edge id=":J17_0" function="internal">
        <lane id=":J17_0_0" index="0" speed="6.43" length="9.03" shape="124.64,-35.22 122.15,-35.04 120.35,-34.11 119.23,-32.42 118.79,-29.97"/>
    </edge>
    <edge id=":J17_1" function="internal">
        <lane id=":J17_1_0" index="0" speed="13.89" length="14.63" shape="124.64,-35.22 110.06,-36.49"/>
    </edge>
    <edge id=":J17_2" function="internal">
        <lane id=":J17_2_0" index="0" speed="8.01" length="4.23" shape="124.64,-35.22 120.78,-36.05 120.55,-36.22"/>
    </edge>
    <edge id=":J17_12" function="internal">
        <lane id=":J17_12_0" index="0" speed="8.01" length="10.10" shape="120.55,-36.22 118.13,-37.91 116.69,-40.80 116.46,-44.71"/>
    </edge>
    <edge id=":J17_3" function="internal">
        <lane id=":J17_3_0" index="0" speed="6.51" length="9.12" shape="119.64,-44.45 119.80,-41.96 120.72,-40.12 122.41,-38.94 124.87,-38.41"/>
    </edge>
    <edge id=":J17_4" function="internal">
        <lane id=":J17_4_0" index="0" speed="13.89" length="14.50" shape="119.64,-44.45 118.79,-29.97"/>
    </edge>
    <edge id=":J17_5" function="internal">
        <lane id=":J17_5_0" index="0" speed="7.97" length="3.92" shape="119.64,-44.45 118.77,-40.62"/>
    </edge>
    <edge id=":J17_13" function="internal">
        <lane id=":J17_13_0" index="0" speed="7.97" length="10.35" shape="118.77,-40.62 116.88,-38.02 113.98,-36.65 110.06,-36.49"/>
    </edge>
    <edge id=":J17_6" function="internal">
        <lane id=":J17_6_0" index="0" speed="6.47" length="9.03" shape="110.39,-39.67 112.87,-39.77 114.71,-40.64 115.90,-42.29 116.46,-44.71"/>
    </edge>
    <edge id=":J17_7" function="internal">
        <lane id=":J17_7_0" index="0" speed="13.89" length="14.53" shape="110.39,-39.67 124.87,-38.41"/>
    </edge>
    <edge id=":J17_8" function="internal">
        <lane id=":J17_8_0" index="0" speed="8.26" length="3.91" shape="110.39,-39.67 114.18,-38.73"/>
    </edge>
    <edge id=":J17_14" function="internal">
        <lane id=":J17_14_0" index="0" speed="8.26" length="10.52" shape="114.18,-38.73 116.85,-36.80 118.38,-33.88 118.79,-29.97"/>
    </edge>
    <edge id=":J17_9" function="internal">
        <lane id=":J17_9_0" index="0" speed="6.82" length="9.52" shape="115.60,-30.08 115.33,-32.66 114.31,-34.59 112.56,-35.87 110.06,-36.49"/>
    </edge>
    <edge id=":J17_10" function="internal">
        <lane id=":J17_10_0" index="0" speed="13.89" length="14.65" shape="115.60,-30.08 116.46,-44.71"/>
    </edge>
    <edge id=":J17_11" function="internal">
        <lane id=":J17_11_0" index="0" speed="7.94" length="4.28" shape="115.60,-30.08 116.29,-33.97 116.48,-34.24"/>
    </edge>
    <edge id=":J17_15" function="internal">
        <lane id=":J17_15_0" index="0" speed="7.94" length="10.05" shape="116.48,-34.24 118.07,-36.65 120.93,-38.13 124.87,-38.41"/>
    </edge>
    <edge id=":J18_0" function="internal">
        <lane id=":J18_0_0" index="0" speed="6.62" length="9.24" shape="128.85,-85.46 126.29,-85.27 124.40,-84.33 123.18,-82.65 122.61,-80.23"/>
    </edge>
    <edge id=":J18_1" function="internal">
        <lane id=":J18_1_0" index="0" speed="13.89" length="14.57" shape="128.85,-85.46 114.32,-86.57"/>
    </edge>
    <edge id=":J18_2" function="internal">
        <lane id=":J18_2_0" index="0" speed="7.92" length="4.22" shape="128.85,-85.46 124.97,-86.27 124.76,-86.41"/>
    </edge>
    <edge id=":J18_12" function="internal">
        <lane id=":J18_12_0" index="0" speed="7.92" length="10.15" shape="124.76,-86.41 122.33,-88.12 120.94,-91.03 120.80,-94.99"/>
    </edge>
    <edge id=":J18_3" function="internal">
        <lane id=":J18_3_0" index="0" speed="6.41" length="9.04" shape="123.98,-94.65 124.07,-92.16 124.94,-90.33 126.60,-89.16 129.04,-88.66"/>
    </edge>
    <edge id=":J18_4" function="internal">
        <lane id=":J18_4_0" index="0" speed="13.89" length="14.48" shape="123.98,-94.65 122.61,-80.23"/>
    </edge>
    <edge id=":J18_5" function="internal">
        <lane id=":J18_5_0" index="0" speed="8.07" length="4.05" shape="123.98,-94.65 123.02,-90.81 122.96,-90.73"/>
    </edge>
    <edge id=":J18_13" function="internal">
        <lane id=":J18_13_0" index="0" speed="8.07" length="10.25" shape="122.96,-90.73 121.09,-88.19 118.19,-86.78 114.32,-86.57"/>
    </edge>
    <edge id=":J18_6" function="internal">
        <lane id=":J18_6_0" index="0" speed="6.59" length="9.20" shape="114.61,-89.76 117.09,-89.89 118.95,-90.81 120.18,-92.51 120.80,-94.99"/>
    </edge>
    <edge id=":J18_7" function="internal">
        <lane id=":J18_7_0" index="0" speed="13.89" length="14.47" shape="114.61,-89.76 129.04,-88.66"/>
    </edge>
    <edge id=":J18_8" function="internal">
        <lane id=":J18_8_0" index="0" speed="8.02" length="3.88" shape="114.61,-89.76 118.38,-88.86"/>
    </edge>
    <edge id=":J18_14" function="internal">
        <lane id=":J18_14_0" index="0" speed="8.02" length="10.28" shape="118.38,-88.86 120.97,-86.98 122.38,-84.10 122.61,-80.23"/>
    </edge>
    <edge id=":J18_9" function="internal">
        <lane id=":J18_9_0" index="0" speed="6.53" length="9.03" shape="119.42,-80.50 119.28,-82.96 118.38,-84.80 116.73,-86.00 114.32,-86.57"/>
    </edge>
    <edge id=":J18_10" function="internal">
        <lane id=":J18_10_0" index="0" speed="13.89" length="14.56" shape="119.42,-80.50 120.80,-94.99"/>
    </edge>
    <edge id=":J18_11" function="internal">
        <lane id=":J18_11_0" index="0" speed="8.10" length="4.13" shape="119.42,-80.50 120.29,-84.27 120.44,-84.47"/>
    </edge>
    <edge id=":J18_15" function="internal">
        <lane id=":J18_15_0" index="0" speed="8.10" length="10.19" shape="120.44,-84.47 122.19,-86.89 125.10,-88.35 129.04,-88.66"/>
    </edge>
    <edge id=":J2_0" function="internal">
        <lane id=":J2_0_0" index="0" speed="6.75" length="9.60" shape="-54.28,-40.16 -54.76,-42.77 -55.93,-44.62 -57.80,-45.71 -60.37,-46.04"/>
    </edge>
    <edge id=":J2_1" function="internal">
        <lane id=":J2_1_0" index="0" speed="13.89" length="14.87" shape="-54.28,-40.16 -55.14,-55.01"/>
    </edge>
    <edge id=":J2_2" function="internal">
        <lane id=":J2_2_0" index="0" speed="7.83" length="4.05" shape="-54.28,-40.16 -53.88,-44.20"/>
    </edge>
    <edge id=":J2_12" function="internal">
        <lane id=":J2_12_0" index="0" speed="7.83" length="10.53" shape="-53.88,-44.20 -52.26,-47.00 -49.44,-48.59 -45.40,-48.94"/>
    </edge>
    <edge id=":J2_3" function="internal">
        <lane id=":J2_3_0" index="0" speed="6.30" length="9.04" shape="-45.58,-45.75 -48.08,-45.53 -49.83,-44.54 -50.83,-42.80 -51.08,-40.30"/>
    </edge>
    <edge id=":J2_4" function="internal">
        <lane id=":J2_4_0" index="0" speed="13.89" length="14.80" shape="-45.58,-45.75 -60.37,-46.04"/>
    </edge>
    <edge id=":J2_5" function="internal">
        <lane id=":J2_5_0" index="0" speed="8.56" length="4.02" shape="-45.58,-45.75 -49.52,-46.51"/>
    </edge>
    <edge id=":J2_13" function="internal">
        <lane id=":J2_13_0" index="0" speed="8.56" length="10.78" shape="-49.52,-46.51 -52.43,-48.31 -54.31,-51.14 -55.14,-55.01"/>
    </edge>
    <edge id=":J2_6" function="internal">
        <lane id=":J2_6_0" index="0" speed="7.17" length="10.10" shape="-51.95,-55.24 -51.38,-52.61 -50.10,-50.69 -48.10,-49.46 -45.40,-48.94"/>
    </edge>
    <edge id=":J2_7" function="internal">
        <lane id=":J2_7_0" index="0" speed="13.89" length="14.97" shape="-51.95,-55.24 -51.08,-40.30"/>
    </edge>
    <edge id=":J2_8" function="internal">
        <lane id=":J2_8_0" index="0" speed="7.90" length="4.23" shape="-51.95,-55.24 -52.23,-51.27 -52.34,-51.06"/>
    </edge>
    <edge id=":J2_14" function="internal">
        <lane id=":J2_14_0" index="0" speed="7.90" length="10.19" shape="-52.34,-51.06 -53.73,-48.42 -56.44,-46.67 -60.37,-46.04"/>
    </edge>
    <edge id=":J2_9" function="internal">
        <lane id=":J2_9_0" index="0" speed="6.39" length="9.04" shape="-60.42,-49.24 -57.96,-49.64 -56.26,-50.73 -55.32,-52.52 -55.14,-55.01"/>
    </edge>
    <edge id=":J2_10" function="internal">
        <lane id=":J2_10_0" index="0" speed="13.89" length="15.03" shape="-60.42,-49.24 -45.40,-48.94"/>
    </edge>
    <edge id=":J2_11" function="internal">
        <lane id=":J2_11_0" index="0" speed="8.20" length="4.40" shape="-60.42,-49.24 -56.48,-48.74 -56.11,-48.52"/>
    </edge>
    <edge id=":J2_15" function="internal">
        <lane id=":J2_15_0" index="0" speed="8.20" length="10.25" shape="-56.11,-48.52 -53.62,-47.08 -51.81,-44.27 -51.08,-40.30"/>
    </edge>
    <edge id=":J3_0" function="internal">
        <lane id=":J3_0_0" index="0" speed="6.96" length="9.76" shape="-57.70,-90.04 -58.25,-92.73 -59.46,-94.66 -61.31,-95.84 -63.82,-96.26"/>
    </edge>
    <edge id=":J3_1" function="internal">
        <lane id=":J3_1_0" index="0" speed="13.89" length="14.93" shape="-57.70,-90.04 -57.93,-93.77 -58.06,-97.50 -58.09,-101.22 -58.01,-104.96"/>
    </edge>
    <edge id=":J3_2" function="internal">
        <lane id=":J3_2_0" index="0" speed="7.80" length="4.28" shape="-57.70,-90.04 -57.41,-94.12 -57.32,-94.29"/>
    </edge>
    <edge id=":J3_12" function="internal">
        <lane id=":J3_12_0" index="0" speed="7.80" length="10.39" shape="-57.32,-94.29 -55.86,-96.97 -53.05,-98.59 -48.98,-98.98"/>
    </edge>
    <edge id=":J3_3" function="internal">
        <lane id=":J3_3_0" index="0" speed="6.26" length="9.05" shape="-49.13,-95.78 -51.64,-95.54 -53.38,-94.55 -54.33,-92.79 -54.51,-90.27"/>
    </edge>
    <edge id=":J3_4" function="internal">
        <lane id=":J3_4_0" index="0" speed="13.89" length="14.70" shape="-49.13,-95.78 -63.82,-96.26"/>
    </edge>
    <edge id=":J3_5" function="internal">
        <lane id=":J3_5_0" index="0" speed="8.12" length="4.07" shape="-49.13,-95.78 -53.13,-96.52"/>
    </edge>
    <edge id=":J3_13" function="internal">
        <lane id=":J3_13_0" index="0" speed="8.12" length="10.45" shape="-53.13,-96.52 -55.94,-98.30 -57.57,-101.11 -58.01,-104.96"/>
    </edge>
    <edge id=":J3_6" function="internal">
        <lane id=":J3_6_0" index="0" speed="6.66" length="9.40" shape="-54.81,-104.85 -54.52,-102.39 -53.45,-100.59 -51.60,-99.46 -48.98,-98.98"/>
    </edge>
    <edge id=":J3_7" function="internal">
        <lane id=":J3_7_0" index="0" speed="13.89" length="14.58" shape="-54.81,-104.85 -54.89,-101.16 -54.86,-97.56 -54.74,-93.95 -54.51,-90.27"/>
    </edge>
    <edge id=":J3_8" function="internal">
        <lane id=":J3_8_0" index="0" speed="8.04" length="3.87" shape="-54.81,-104.85 -55.49,-101.04"/>
    </edge>
    <edge id=":J3_14" function="internal">
        <lane id=":J3_14_0" index="0" speed="8.04" length="10.27" shape="-55.49,-101.04 -57.22,-98.34 -59.99,-96.75 -63.82,-96.26"/>
    </edge>
    <edge id=":J3_9" function="internal">
        <lane id=":J3_9_0" index="0" speed="6.56" length="9.05" shape="-63.77,-99.46 -61.32,-99.77 -59.55,-100.79 -58.44,-102.52 -58.01,-104.96"/>
    </edge>
    <edge id=":J3_10" function="internal">
        <lane id=":J3_10_0" index="0" speed="13.89" length="14.80" shape="-63.77,-99.46 -48.98,-98.98"/>
    </edge>
    <edge id=":J3_11" function="internal">
        <lane id=":J3_11_0" index="0" speed="8.38" length="4.14" shape="-63.77,-99.46 -59.97,-98.83 -59.73,-98.69"/>
    </edge>
    <edge id=":J3_15" function="internal">
        <lane id=":J3_15_0" index="0" speed="8.38" length="10.46" shape="-59.73,-98.69 -57.16,-97.10 -55.34,-94.24 -54.51,-90.27"/>
    </edge>
    <edge id=":J6_0" function="internal">
        <lane id=":J6_0_0" index="0" speed="6.61" length="9.20" shape="-0.36,11.34 -0.75,8.88 -1.84,7.11 -3.65,6.04 -6.16,5.67"/>
    </edge>
    <edge id=":J6_1" function="internal">
        <lane id=":J6_1_0" index="0" speed="13.89" length="14.46" shape="-0.36,11.34 -0.58,-3.12"/>
    </edge>
    <edge id=":J6_2" function="internal">
        <lane id=":J6_2_0" index="0" speed="8.02" length="4.04" shape="-0.36,11.34 0.14,7.49 0.22,7.35"/>
    </edge>
    <edge id=":J6_12" function="internal">
        <lane id=":J6_12_0" index="0" speed="8.02" length="10.15" shape="0.22,7.35 1.76,4.72 4.48,3.02 8.32,2.40"/>
    </edge>
    <edge id=":J6_3" function="internal">
        <lane id=":J6_3_0" index="0" speed="6.53" length="9.05" shape="8.38,5.60 5.93,6.00 4.19,7.08 3.16,8.85 2.84,11.30"/>
    </edge>
    <edge id=":J6_4" function="internal">
        <lane id=":J6_4_0" index="0" speed="13.89" length="14.54" shape="8.38,5.60 -6.16,5.67"/>
    </edge>
    <edge id=":J6_5" function="internal">
        <lane id=":J6_5_0" index="0" speed="8.02" length="4.17" shape="8.38,5.60 4.52,5.12 4.28,4.98"/>
    </edge>
    <edge id=":J6_13" function="internal">
        <lane id=":J6_13_0" index="0" speed="8.02" length="10.10" shape="4.28,4.98 1.74,3.51 0.04,0.76 -0.58,-3.12"/>
    </edge>
    <edge id=":J6_6" function="internal">
        <lane id=":J6_6_0" index="0" speed="6.53" length="9.10" shape="2.62,-3.18 3.01,-0.70 4.10,1.06 5.87,2.09 8.32,2.40"/>
    </edge>
    <edge id=":J6_7" function="internal">
        <lane id=":J6_7_0" index="0" speed="13.89" length="14.48" shape="2.62,-3.18 2.84,11.30"/>
    </edge>
    <edge id=":J6_8" function="internal">
        <lane id=":J6_8_0" index="0" speed="7.95" length="4.11" shape="2.62,-3.18 2.13,0.73 2.04,0.88"/>
    </edge>
    <edge id=":J6_14" function="internal">
        <lane id=":J6_14_0" index="0" speed="7.95" length="10.19" shape="2.04,0.88 0.51,3.50 -2.26,5.15 -6.16,5.67"/>
    </edge>
    <edge id=":J6_9" function="internal">
        <lane id=":J6_9_0" index="0" speed="6.45" length="9.03" shape="-6.12,2.47 -3.66,2.14 -1.92,1.10 -0.89,-0.65 -0.58,-3.12"/>
    </edge>
    <edge id=":J6_10" function="internal">
        <lane id=":J6_10_0" index="0" speed="13.89" length="14.45" shape="-6.12,2.47 8.32,2.40"/>
    </edge>
    <edge id=":J6_11" function="internal">
        <lane id=":J6_11_0" index="0" speed="8.09" length="3.92" shape="-6.12,2.47 -2.24,3.05"/>
    </edge>
    <edge id=":J6_15" function="internal">
        <lane id=":J6_15_0" index="0" speed="8.09" length="10.35" shape="-2.24,3.05 0.54,4.72 2.24,7.47 2.84,11.30"/>
    </edge>
    <edge id=":J7_0" function="internal">
        <lane id=":J7_0_0" index="0" speed="6.88" length="9.64" shape="-1.19,-37.45 -1.60,-40.03 -2.74,-41.92 -4.59,-43.11 -7.17,-43.62"/>
    </edge>
    <edge id=":J7_1" function="internal">
        <lane id=":J7_1_0" index="0" speed="13.89" length="14.73" shape="-1.19,-37.45 -1.30,-52.19"/>
    </edge>
    <edge id=":J7_2" function="internal">
        <lane id=":J7_2_0" index="0" speed="7.93" length="4.18" shape="-1.19,-37.45 -0.70,-41.38 -0.58,-41.57"/>
    </edge>
    <edge id=":J7_12" function="internal">
        <lane id=":J7_12_0" index="0" speed="7.93" length="10.17" shape="-0.58,-41.57 0.94,-44.15 3.72,-45.77 7.64,-46.25"/>
    </edge>
    <edge id=":J7_3" function="internal">